pglib_opf_case4661_sdet.m
%%%%%%%%%%%%%%%%%%%%%%%%%%%%%%%%%%%%%%%%%%%%%%%%%%%%%%%%%%%%%%%%%%%%%%%%%%%
%%%%                                                                  %%%%%
%%%%    IEEE PES Power Grid Library - Optimal Power Flow - v23.07     %%%%%
%%%%          (https://github.com/power-grid-lib/pglib-opf)           %%%%%
%%%%               Benchmark Group - Typical Operations               %%%%%
%%%%                         23 - July - 2023                         %%%%%
%%%%                                                                  %%%%%
%%%%%%%%%%%%%%%%%%%%%%%%%%%%%%%%%%%%%%%%%%%%%%%%%%%%%%%%%%%%%%%%%%%%%%%%%%%
%
%   A 4661 bus model created by the Sustainable Data Evolution Technology (SDET)
%   tool.
%
%   https://egriddata.org/group/sustainable-data-evolution-technology-sdet
%
%   Developed by Renke Huang,
%   Pacific Northwest National Laboratory, U.S.A.
%   Provided in the public domain. May, 2018
%
function mpc = pglib_opf_case4661_sdet
mpc.version = '2';
mpc.baseMVA = 100.0;

%% bus data
%	bus_i	type	Pd	Qd	Gs	Bs	area	Vm	Va	baseKV	zone	Vmax	Vmin
mpc.bus = [
	1	 2	 0.0	 0.0	 0.0	 0.0	 1	    1.00000	    0.00000	 345.0	 1	    1.10000	    0.90000;
	2	 2	 0.0	 0.0	 0.0	 0.0	 1	    1.00000	    0.00000	 345.0	 1	    1.10000	    0.90000;
	3	 2	 0.0	 0.0	 0.0	 0.0	 1	    1.00000	    0.00000	 345.0	 1	    1.10000	    0.90000;
	4	 1	 100.81	 50.37	 0.0	 0.0	 1	    1.00000	    0.00000	 345.0	 1	    1.10000	    0.90000;
	5	 2	 0.0	 0.0	 0.0	 0.0	 1	    1.00000	    0.00000	 345.0	 1	    1.10000	    0.90000;
	6	 1	 0.0	 0.0	 0.0	 0.0	 1	    1.00000	    0.00000	 345.0	 1	    1.10000	    0.90000;
	7	 1	 0.0	 0.0	 0.0	 0.0	 1	    1.00000	    0.00000	 345.0	 1	    1.10000	    0.90000;
	8	 1	 0.0	 0.0	 0.0	 0.0	 1	    1.00000	    0.00000	 345.0	 1	    1.10000	    0.90000;
	9	 1	 103.97	 39.67	 0.0	 0.0	 1	    1.00000	    0.00000	 345.0	 1	    1.10000	    0.90000;
	10	 2	 0.0	 0.0	 0.0	 0.0	 1	    1.00000	    0.00000	 345.0	 1	    1.10000	    0.90000;
	11	 1	 0.0	 0.0	 0.0	 0.0	 1	    1.00000	    0.00000	 345.0	 1	    1.10000	    0.90000;
	12	 2	 7.7	 20.0	 0.0	 0.0	 1	    1.00000	    0.00000	 345.0	 1	    1.10000	    0.90000;
	13	 2	 7.8	 20.0	 0.0	 0.0	 1	    1.00000	    0.00000	 345.0	 1	    1.10000	    0.90000;
	14	 1	 0.0	 0.0	 0.0	 0.0	 1	    1.00000	    0.00000	 345.0	 1	    1.10000	    0.90000;
	15	 2	 0.0	 -13.01	 0.0	 0.0	 1	    1.00000	    0.00000	 345.0	 1	    1.10000	    0.90000;
	16	 1	 0.0	 0.0	 0.0	 0.0	 1	    1.00000	    0.00000	 345.0	 1	    1.10000	    0.90000;
	17	 1	 0.0	 0.0	 0.0	 94.26	 1	    1.00000	    0.00000	 345.0	 1	    1.10000	    0.90000;
	18	 2	 12.0	 30.0	 0.0	 0.0	 1	    1.00000	    0.00000	 345.0	 1	    1.10000	    0.90000;
	19	 2	 23.8	 60.0	 0.0	 0.0	 1	    1.00000	    0.00000	 345.0	 1	    1.10000	    0.90000;
	20	 2	 38.0	 64.0	 0.0	 0.0	 1	    1.00000	    0.00000	 500.0	 1	    1.10000	    0.90000;
	21	 1	 175.56	 -19.75	 0.0	 0.0	 1	    1.00000	    0.00000	 345.0	 1	    1.10000	    0.90000;
	22	 1	 0.0	 0.0	 0.0	 0.0	 1	    1.00000	    0.00000	 345.0	 1	    1.10000	    0.90000;
	23	 1	 0.0	 0.0	 0.0	 0.0	 1	    1.00000	    0.00000	 345.0	 1	    1.10000	    0.90000;
	24	 2	 0.0	 0.0	 0.0	 168.92	 1	    1.00000	    0.00000	 500.0	 1	    1.10000	    0.90000;
	25	 2	 0.0	 0.0	 0.0	 -33.19	 1	    1.00000	    0.00000	 345.0	 1	    1.10000	    0.90000;
	26	 1	 102.48	 53.02	 0.0	 0.0	 1	    1.00000	    0.00000	 345.0	 1	    1.10000	    0.90000;
	27	 1	 0.0	 0.0	 0.0	 0.0	 1	    1.00000	    0.00000	 345.0	 1	    1.10000	    0.90000;
	28	 1	 0.0	 0.0	 0.0	 0.0	 1	    1.00000	    0.00000	 345.0	 1	    1.10000	    0.90000;
	29	 1	 33.71	 -15.57	 0.0	 0.0	 1	    1.00000	    0.00000	 345.0	 1	    1.10000	    0.90000;
	30	 1	 0.0	 0.0	 0.0	 0.0	 1	    1.00000	    0.00000	 345.0	 1	    1.10000	    0.90000;
	31	 1	 0.0	 0.0	 0.0	 0.0	 1	    1.00000	    0.00000	 345.0	 1	    1.10000	    0.90000;
	32	 2	 0.0	 0.0	 0.0	 118.65	 1	    1.00000	    0.00000	 500.0	 1	    1.10000	    0.90000;
	33	 1	 0.0	 0.0	 0.0	 0.0	 1	    1.00000	    0.00000	 345.0	 1	    1.10000	    0.90000;
	34	 1	 0.0	 0.0	 0.0	 0.0	 1	    1.00000	    0.00000	 345.0	 1	    1.10000	    0.90000;
	35	 1	 0.0	 0.0	 0.0	 0.0	 1	    1.00000	    0.00000	 345.0	 1	    1.10000	    0.90000;
	36	 1	 0.0	 0.0	 0.0	 -16.94	 1	    1.00000	    0.00000	 345.0	 1	    1.10000	    0.90000;
	37	 1	 57.88	 42.37	 0.0	 2.23	 1	    1.00000	    0.00000	 345.0	 1	    1.10000	    0.90000;
	38	 1	 0.0	 0.0	 0.0	 5.87	 1	    1.00000	    0.00000	 345.0	 1	    1.10000	    0.90000;
	39	 1	 0.0	 0.0	 0.0	 2.56	 1	    1.00000	    0.00000	 345.0	 1	    1.10000	    0.90000;
	40	 1	 0.0	 0.0	 0.0	 6.7	 1	    1.00000	    0.00000	 345.0	 1	    1.10000	    0.90000;
	41	 1	 0.0	 0.0	 0.0	 40.02	 1	    1.00000	    0.00000	 16.0	 1	    1.10000	    0.90000;
	42	 1	 5.72	 1.6	 0.0	 0.0	 1	    1.00000	    0.00000	 138.0	 1	    1.10000	    0.90000;
	43	 1	 3.85	 1.4	 0.0	 0.0	 1	    1.00000	    0.00000	 138.0	 1	    1.10000	    0.90000;
	44	 2	 53.77	 21.02	 0.0	 0.0	 1	    1.00000	    0.00000	 138.0	 1	    1.10000	    0.90000;
	45	 2	 77.06	 34.03	 0.0	 0.0	 1	    1.00000	    0.00000	 138.0	 1	    1.10000	    0.90000;
	46	 1	 3.75	 0.5	 0.0	 0.0	 1	    1.00000	    0.00000	 138.0	 1	    1.10000	    0.90000;
	47	 1	 0.0	 0.0	 0.0	 0.0	 1	    1.00000	    0.00000	 138.0	 1	    1.10000	    0.90000;
	48	 1	 6.61	 1.3	 0.0	 0.0	 1	    1.00000	    0.00000	 138.0	 1	    1.10000	    0.90000;
	49	 1	 5.52	 0.6	 0.0	 0.0	 1	    1.00000	    0.00000	 138.0	 1	    1.10000	    0.90000;
	50	 1	 4.14	 0.6	 0.0	 0.0	 1	    1.00000	    0.00000	 138.0	 1	    1.10000	    0.90000;
	51	 1	 0.0	 0.0	 0.0	 0.0	 1	    1.00000	    0.00000	 138.0	 1	    1.10000	    0.90000;
	52	 1	 6.21	 1.2	 0.0	 0.0	 1	    1.00000	    0.00000	 138.0	 1	    1.10000	    0.90000;
	53	 1	 8.68	 1.6	 0.0	 0.0	 1	    1.00000	    0.00000	 138.0	 1	    1.10000	    0.90000;
	54	 1	 3.95	 0.2	 0.0	 0.0	 1	    1.00000	    0.00000	 138.0	 1	    1.10000	    0.90000;
	55	 1	 27.7	 7.77	 0.0	 0.0	 1	    1.00000	    0.00000	 138.0	 1	    1.10000	    0.90000;
	56	 1	 0.0	 0.0	 0.0	 0.0	 1	    1.00000	    0.00000	 138.0	 1	    1.10000	    0.90000;
	57	 1	 8.19	 1.8	 0.0	 0.0	 1	    1.00000	    0.00000	 138.0	 1	    1.10000	    0.90000;
	58	 1	 0.0	 0.0	 0.0	 0.0	 1	    1.00000	    0.00000	 138.0	 1	    1.10000	    0.90000;
	59	 2	 6.02	 2.7	 0.0	 0.0	 1	    1.00000	    0.00000	 138.0	 1	    1.10000	    0.90000;
	60	 1	 7.89	 0.2	 0.0	 0.0	 1	    1.00000	    0.00000	 138.0	 1	    1.10000	    0.90000;
	61	 1	 0.0	 0.0	 0.0	 0.0	 1	    1.00000	    0.00000	 138.0	 1	    1.10000	    0.90000;
	62	 1	 3.65	 1.2	 0.0	 0.0	 1	    1.00000	    0.00000	 138.0	 1	    1.10000	    0.90000;
	63	 1	 23.01	 3.27	 0.0	 0.0	 1	    1.00000	    0.00000	 138.0	 1	    1.10000	    0.90000;
	64	 2	 2.22	 0.71	 0.0	 -34.1	 1	    1.00000	    0.00000	 138.0	 1	    1.10000	    0.90000;
	65	 1	 2.29	 0.33	 0.0	 0.0	 1	    1.00000	    0.00000	 138.0	 1	    1.10000	    0.90000;
	66	 1	 2.08	 0.84	 0.0	 7.69	 1	    1.00000	    0.00000	 138.0	 1	    1.10000	    0.90000;
	67	 1	 5.52	 1.36	 0.0	 0.0	 1	    1.00000	    0.00000	 138.0	 1	    1.10000	    0.90000;
	68	 1	 67.63	 25.33	 0.0	 0.0	 1	    1.00000	    0.00000	 138.0	 1	    1.10000	    0.90000;
	69	 1	 6.56	 2.09	 0.0	 0.0	 1	    1.00000	    0.00000	 138.0	 1	    1.10000	    0.90000;
	70	 1	 53.26	 -14.07	 0.0	 0.0	 1	    1.00000	    0.00000	 138.0	 1	    1.10000	    0.90000;
	71	 1	 110.89	 66.23	 0.0	 0.0	 1	    1.00000	    0.00000	 138.0	 1	    1.10000	    0.90000;
	72	 1	 0.0	 0.0	 0.0	 0.0	 1	    1.00000	    0.00000	 138.0	 1	    1.10000	    0.90000;
	73	 1	 12.5	 2.2	 0.0	 0.0	 1	    1.00000	    0.00000	 138.0	 1	    1.10000	    0.90000;
	74	 1	 7.91	 1.37	 0.0	 0.0	 1	    1.00000	    0.00000	 138.0	 1	    1.10000	    0.90000;
	75	 1	 24.4	 10.74	 0.0	 0.0	 1	    1.00000	    0.00000	 138.0	 1	    1.10000	    0.90000;
	76	 1	 16.95	 4.84	 0.0	 0.0	 1	    1.00000	    0.00000	 138.0	 1	    1.10000	    0.90000;
	77	 1	 7.28	 2.63	 0.0	 0.0	 1	    1.00000	    0.00000	 138.0	 1	    1.10000	    0.90000;
	78	 1	 0.0	 0.0	 0.0	 0.0	 1	    1.00000	    0.00000	 138.0	 1	    1.10000	    0.90000;
	79	 1	 16.38	 4.42	 0.0	 0.0	 1	    1.00000	    0.00000	 138.0	 1	    1.10000	    0.90000;
	80	 2	 1.0	 3.0	 0.0	 0.0	 1	    1.00000	    0.00000	 138.0	 1	    1.10000	    0.90000;
	81	 1	 0.0	 0.0	 0.0	 0.0	 1	    1.00000	    0.00000	 138.0	 1	    1.10000	    0.90000;
	82	 2	 3.02	 1.89	 0.0	 -5.96	 1	    1.00000	    0.00000	 138.0	 1	    1.10000	    0.90000;
	83	 1	 6.87	 3.68	 0.0	 0.0	 1	    1.00000	    0.00000	 138.0	 1	    1.10000	    0.90000;
	84	 2	 3.33	 0.71	 0.0	 0.0	 1	    1.00000	    0.00000	 138.0	 1	    1.10000	    0.90000;
	85	 2	 15.78	 30.64	 0.0	 0.0	 1	    1.00000	    0.00000	 138.0	 1	    1.10000	    0.90000;
	86	 1	 18.75	 5.96	 0.0	 3.89	 1	    1.00000	    0.00000	 138.0	 1	    1.10000	    0.90000;
	87	 1	 229.29	 29.74	 0.0	 -60.0	 1	    1.00000	    0.00000	 138.0	 1	    1.10000	    0.90000;
	88	 1	 11.46	 3.77	 0.0	 0.0	 1	    1.00000	    0.00000	 138.0	 1	    1.10000	    0.90000;
	89	 1	 12.6	 5.64	 0.0	 0.0	 1	    1.00000	    0.00000	 138.0	 1	    1.10000	    0.90000;
	90	 1	 28.1	 -1.93	 0.0	 0.0	 1	    1.00000	    0.00000	 138.0	 1	    1.10000	    0.90000;
	91	 1	 10.09	 5.57	 0.0	 0.0	 1	    1.00000	    0.00000	 138.0	 1	    1.10000	    0.90000;
	92	 1	 0.0	 0.0	 0.0	 0.0	 1	    1.00000	    0.00000	 138.0	 1	    1.10000	    0.90000;
	93	 1	 5.2	 1.47	 0.0	 0.0	 1	    1.00000	    0.00000	 138.0	 1	    1.10000	    0.90000;
	94	 1	 45.72	 -10.43	 0.0	 0.0	 1	    1.00000	    0.00000	 138.0	 1	    1.10000	    0.90000;
	95	 1	 0.0	 0.0	 0.0	 0.0	 1	    1.00000	    0.00000	 138.0	 1	    1.10000	    0.90000;
	96	 1	 0.0	 0.0	 0.0	 0.0	 1	    1.00000	    0.00000	 138.0	 1	    1.10000	    0.90000;
	97	 1	 3.54	 0.21	 0.0	 0.0	 1	    1.00000	    0.00000	 138.0	 1	    1.10000	    0.90000;
	98	 2	 4.4	 5.71	 0.0	 0.0	 1	    1.00000	    0.00000	 138.0	 1	    1.10000	    0.90000;
	99	 2	 6.33	 5.23	 0.0	 12.01	 1	    1.00000	    0.00000	 138.0	 1	    1.10000	    0.90000;
	100	 1	 15.17	 4.72	 0.0	 0.0	 1	    1.00000	    0.00000	 138.0	 1	    1.10000	    0.90000;
	101	 1	 13.06	 4.72	 0.0	 0.0	 1	    1.00000	    0.00000	 138.0	 1	    1.10000	    0.90000;
	102	 1	 0.0	 0.0	 0.0	 0.0	 1	    1.00000	    0.00000	 138.0	 1	    1.10000	    0.90000;
	103	 1	 24.26	 11.73	 0.0	 0.0	 1	    1.00000	    0.00000	 138.0	 1	    1.10000	    0.90000;
	104	 1	 9.45	 4.22	 0.0	 -3.12	 1	    1.00000	    0.00000	 138.0	 1	    1.10000	    0.90000;
	105	 1	 8.94	 4.02	 0.0	 0.0	 1	    1.00000	    0.00000	 138.0	 1	    1.10000	    0.90000;
	106	 1	 9.75	 5.12	 0.0	 0.0	 1	    1.00000	    0.00000	 138.0	 1	    1.10000	    0.90000;
	107	 1	 5.53	 2.01	 0.0	 0.0	 1	    1.00000	    0.00000	 138.0	 1	    1.10000	    0.90000;
	108	 1	 5.22	 1.91	 0.0	 0.0	 1	    1.00000	    0.00000	 138.0	 1	    1.10000	    0.90000;
	109	 1	 12.08	 3.61	 0.0	 0.0	 1	    1.00000	    0.00000	 138.0	 1	    1.10000	    0.90000;
	110	 2	 24.24	 1.56	 0.0	 0.0	 1	    1.00000	    0.00000	 138.0	 1	    1.10000	    0.90000;
	111	 1	 9.95	 2.41	 0.0	 0.0	 1	    1.00000	    0.00000	 138.0	 1	    1.10000	    0.90000;
	112	 1	 127.47	 30.18	 0.0	 0.0	 1	    1.00000	    0.00000	 138.0	 1	    1.10000	    0.90000;
	113	 2	 0.0	 0.0	 0.0	 0.0	 1	    1.00000	    0.00000	 138.0	 1	    1.10000	    0.90000;
	114	 1	 0.0	 0.0	 0.0	 0.0	 1	    1.00000	    0.00000	 138.0	 1	    1.10000	    0.90000;
	115	 2	 7.23	 2.61	 0.0	 0.0	 1	    1.00000	    0.00000	 138.0	 1	    1.10000	    0.90000;
	116	 1	 7.13	 2.61	 0.0	 0.0	 1	    1.00000	    0.00000	 138.0	 1	    1.10000	    0.90000;
	117	 1	 8.94	 2.71	 0.0	 0.0	 1	    1.00000	    0.00000	 138.0	 1	    1.10000	    0.90000;
	118	 1	 5.93	 1.41	 0.0	 0.0	 1	    1.00000	    0.00000	 138.0	 1	    1.10000	    0.90000;
	119	 1	 0.0	 0.0	 0.0	 45.0	 1	    1.00000	    0.00000	 16.0	 1	    1.10000	    0.90000;
	120	 2	 26.22	 20.39	 0.0	 0.0	 1	    1.00000	    0.00000	 138.0	 1	    1.10000	    0.90000;
	121	 1	 26.94	 -4.46	 0.0	 0.0	 1	    1.00000	    0.00000	 138.0	 1	    1.10000	    0.90000;
	122	 1	 3.12	 1.41	 0.0	 0.0	 1	    1.00000	    0.00000	 138.0	 1	    1.10000	    0.90000;
	123	 1	 0.0	 0.0	 0.0	 0.0	 1	    1.00000	    0.00000	 138.0	 1	    1.10000	    0.90000;
	124	 2	 0.0	 0.0	 0.0	 0.0	 1	    1.00000	    0.00000	 138.0	 1	    1.10000	    0.90000;
	125	 1	 8.84	 2.91	 0.0	 0.0	 1	    1.00000	    0.00000	 138.0	 1	    1.10000	    0.90000;
	126	 1	 5.42	 2.31	 0.0	 0.0	 1	    1.00000	    0.00000	 138.0	 1	    1.10000	    0.90000;
	127	 1	 4.72	 2.11	 0.0	 0.0	 1	    1.00000	    0.00000	 138.0	 1	    1.10000	    0.90000;
	128	 2	 9.45	 3.71	 0.0	 0.0	 1	    1.00000	    0.00000	 138.0	 1	    1.10000	    0.90000;
	129	 1	 13.06	 4.22	 0.0	 0.0	 1	    1.00000	    0.00000	 138.0	 1	    1.10000	    0.90000;
	130	 1	 9.04	 5.52	 0.0	 0.0	 1	    1.00000	    0.00000	 138.0	 1	    1.10000	    0.90000;
	131	 1	 13.99	 11.8	 0.0	 0.0	 1	    1.00000	    0.00000	 138.0	 1	    1.10000	    0.90000;
	132	 2	 12.06	 9.44	 0.0	 0.0	 1	    1.00000	    0.00000	 138.0	 1	    1.10000	    0.90000;
	133	 2	 0.0	 0.0	 0.0	 0.0	 1	    1.00000	    0.00000	 138.0	 1	    1.10000	    0.90000;
	134	 1	 8.94	 3.82	 0.0	 0.0	 1	    1.00000	    0.00000	 138.0	 1	    1.10000	    0.90000;
	135	 1	 11.05	 3.72	 0.0	 0.0	 1	    1.00000	    0.00000	 138.0	 1	    1.10000	    0.90000;
	136	 2	 11.05	 3.86	 0.0	 -1.17	 1	    1.00000	    0.00000	 138.0	 1	    1.10000	    0.90000;
	137	 1	 3.82	 1.0	 0.0	 0.0	 1	    1.00000	    0.00000	 138.0	 1	    1.10000	    0.90000;
	138	 1	 20.4	 6.83	 0.0	 0.0	 1	    1.00000	    0.00000	 138.0	 1	    1.10000	    0.90000;
	139	 1	 9.45	 3.11	 0.0	 0.0	 1	    1.00000	    0.00000	 138.0	 1	    1.10000	    0.90000;
	140	 1	 0.0	 0.0	 0.0	 0.0	 1	    1.00000	    0.00000	 138.0	 1	    1.10000	    0.90000;
	141	 1	 10.45	 5.22	 0.0	 0.0	 1	    1.00000	    0.00000	 138.0	 1	    1.10000	    0.90000;
	142	 1	 4.72	 2.11	 0.0	 0.0	 1	    1.00000	    0.00000	 138.0	 1	    1.10000	    0.90000;
	143	 1	 6.83	 2.31	 0.0	 0.0	 1	    1.00000	    0.00000	 138.0	 1	    1.10000	    0.90000;
	144	 1	 17.35	 -0.23	 0.0	 0.0	 1	    1.00000	    0.00000	 138.0	 1	    1.10000	    0.90000;
	145	 1	 12.76	 4.32	 0.0	 0.0	 1	    1.00000	    0.00000	 138.0	 1	    1.10000	    0.90000;
	146	 1	 0.0	 0.0	 0.0	 0.0	 1	    1.00000	    0.00000	 138.0	 1	    1.10000	    0.90000;
	147	 2	 16.78	 6.33	 0.0	 0.0	 1	    1.00000	    0.00000	 138.0	 1	    1.10000	    0.90000;
	148	 1	 15.67	 4.72	 0.0	 0.0	 1	    1.00000	    0.00000	 138.0	 1	    1.10000	    0.90000;
	149	 1	 15.67	 4.22	 0.0	 0.0	 1	    1.00000	    0.00000	 138.0	 1	    1.10000	    0.90000;
	150	 1	 10.95	 3.19	 0.0	 0.0	 1	    1.00000	    0.00000	 138.0	 1	    1.10000	    0.90000;
	151	 1	 25.87	 0.56	 0.0	 0.0	 1	    1.00000	    0.00000	 138.0	 1	    1.10000	    0.90000;
	152	 1	 6.43	 2.81	 0.0	 0.0	 1	    1.00000	    0.00000	 138.0	 1	    1.10000	    0.90000;
	153	 2	 83.9	 27.21	 0.0	 0.0	 1	    1.00000	    0.00000	 138.0	 1	    1.10000	    0.90000;
	154	 1	 4.12	 2.51	 0.0	 0.0	 1	    1.00000	    0.00000	 138.0	 1	    1.10000	    0.90000;
	155	 1	 57.98	 32.55	 0.0	 0.0	 1	    1.00000	    0.00000	 138.0	 1	    1.10000	    0.90000;
	156	 1	 25.12	 8.34	 0.0	 0.0	 1	    1.00000	    0.00000	 138.0	 1	    1.10000	    0.90000;
	157	 2	 19.19	 12.25	 0.0	 0.0	 1	    1.00000	    0.00000	 138.0	 1	    1.10000	    0.90000;
	158	 1	 13.16	 7.63	 0.0	 0.0	 1	    1.00000	    0.00000	 138.0	 1	    1.10000	    0.90000;
	159	 2	 18.79	 6.73	 0.0	 0.0	 1	    1.00000	    0.00000	 138.0	 1	    1.10000	    0.90000;
	160	 2	 22.0	 20.15	 0.0	 0.0	 1	    1.00000	    0.00000	 138.0	 1	    1.10000	    0.90000;
	161	 1	 12.46	 5.42	 0.0	 0.0	 1	    1.00000	    0.00000	 138.0	 1	    1.10000	    0.90000;
	162	 1	 41.9	 16.77	 0.0	 0.0	 1	    1.00000	    0.00000	 138.0	 1	    1.10000	    0.90000;
	163	 1	 21.0	 8.33	 0.0	 0.0	 1	    1.00000	    0.00000	 138.0	 1	    1.10000	    0.90000;
	164	 1	 2.11	 0.8	 0.0	 0.0	 1	    1.00000	    0.00000	 138.0	 1	    1.10000	    0.90000;
	165	 1	 44.41	 14.96	 0.0	 0.0	 1	    1.00000	    0.00000	 138.0	 1	    1.10000	    0.90000;
	166	 1	 50.74	 16.87	 0.0	 0.0	 1	    1.00000	    0.00000	 138.0	 1	    1.10000	    0.90000;
	167	 1	 14.17	 5.22	 0.0	 0.0	 1	    1.00000	    0.00000	 138.0	 1	    1.10000	    0.90000;
	168	 1	 0.0	 0.0	 0.0	 0.0	 1	    1.00000	    0.00000	 500.0	 1	    1.10000	    0.90000;
	169	 1	 0.0	 0.0	 0.0	 0.0	 2	    1.00000	    0.00000	 500.0	 2	    1.10000	    0.90000;
	170	 2	 0.0	 0.0	 0.0	 0.0	 2	    1.00000	    0.00000	 500.0	 2	    1.10000	    0.90000;
	171	 2	 0.0	 0.0	 0.0	 0.0	 2	    1.00000	    0.00000	 500.0	 2	    1.10000	    0.90000;
	172	 2	 0.0	 0.0	 0.0	 0.0	 2	    1.00000	    0.00000	 500.0	 2	    1.10000	    0.90000;
	173	 1	 122.12	 -142.76	 0.0	 0.0	 2	    1.00000	    0.00000	 500.0	 2	    1.10000	    0.90000;
	174	 1	 0.0	 0.0	 0.0	 0.0	 2	    1.00000	    0.00000	 500.0	 2	    1.10000	    0.90000;
	175	 2	 0.0	 0.0	 0.0	 0.0	 2	    1.00000	    0.00000	 500.0	 2	    1.10000	    0.90000;
	176	 2	 0.0	 0.0	 0.0	 0.0	 2	    1.00000	    0.00000	 500.0	 2	    1.10000	    0.90000;
	177	 2	 0.0	 0.0	 0.0	 0.0	 2	    1.00000	    0.00000	 500.0	 2	    1.10000	    0.90000;
	178	 2	 0.0	 0.0	 0.0	 0.0	 2	    1.00000	    0.00000	 500.0	 2	    1.10000	    0.90000;
	179	 1	 4.5	 3.37	 0.0	 0.0	 2	    1.00000	    0.00000	 500.0	 2	    1.10000	    0.90000;
	180	 2	 0.0	 0.0	 0.0	 0.0	 2	    1.00000	    0.00000	 500.0	 2	    1.10000	    0.90000;
	181	 2	 0.0	 0.0	 0.0	 0.0	 2	    1.00000	    0.00000	 500.0	 2	    1.10000	    0.90000;
	182	 1	 0.0	 0.0	 0.0	 0.0	 2	    1.00000	    0.00000	 500.0	 2	    1.10000	    0.90000;
	183	 2	 0.0	 0.0	 0.0	 0.0	 2	    1.00000	    0.00000	 500.0	 2	    1.10000	    0.90000;
	184	 2	 0.0	 0.0	 0.0	 0.0	 2	    1.00000	    0.00000	 500.0	 2	    1.10000	    0.90000;
	185	 2	 0.0	 0.0	 0.0	 0.0	 2	    1.00000	    0.00000	 500.0	 2	    1.10000	    0.90000;
	186	 2	 0.0	 0.0	 0.0	 0.0	 2	    1.00000	    0.00000	 500.0	 2	    1.10000	    0.90000;
	187	 1	 0.0	 0.0	 0.0	 0.0	 2	    1.00000	    0.00000	 500.0	 2	    1.10000	    0.90000;
	188	 2	 0.0	 0.0	 0.0	 0.0	 2	    1.00000	    0.00000	 500.0	 2	    1.10000	    0.90000;
	189	 2	 0.0	 0.0	 0.0	 0.0	 2	    1.00000	    0.00000	 500.0	 2	    1.10000	    0.90000;
	190	 2	 0.0	 0.0	 0.0	 0.0	 2	    1.00000	    0.00000	 500.0	 2	    1.10000	    0.90000;
	191	 1	 0.0	 0.0	 0.0	 0.0	 2	    1.00000	    0.00000	 500.0	 2	    1.10000	    0.90000;
	192	 2	 0.0	 0.0	 0.0	 0.0	 2	    1.00000	    0.00000	 500.0	 2	    1.10000	    0.90000;
	193	 2	 0.0	 0.0	 0.0	 0.0	 2	    1.00000	    0.00000	 500.0	 2	    1.10000	    0.90000;
	194	 2	 0.0	 0.0	 0.0	 0.0	 2	    1.00000	    0.00000	 500.0	 2	    1.10000	    0.90000;
	195	 1	 0.0	 0.0	 0.0	 0.0	 2	    1.00000	    0.00000	 500.0	 2	    1.10000	    0.90000;
	196	 1	 26.44	 39.0	 0.0	 0.0	 2	    1.00000	    0.00000	 500.0	 2	    1.10000	    0.90000;
	197	 2	 0.0	 0.0	 0.0	 0.0	 2	    1.00000	    0.00000	 500.0	 2	    1.10000	    0.90000;
	198	 2	 0.0	 0.0	 0.0	 0.0	 2	    1.00000	    0.00000	 500.0	 2	    1.10000	    0.90000;
	199	 1	 0.0	 0.0	 0.0	 0.0	 2	    1.00000	    0.00000	 500.0	 2	    1.10000	    0.90000;
	200	 1	 0.0	 0.0	 0.0	 0.0	 2	    1.00000	    0.00000	 500.0	 2	    1.10000	    0.90000;
...
];

%% generator data
%	bus	Pg	Qg	Qmax	Qmin	Vg	mBase	status	Pmax	Pmin	Pc1	Pc2	Qc1min	Qc1max	Qc2min	Qc2max	ramp_agc	ramp_10	ramp_30	ramp_q	apf
mpc.gen = [
	1	 33.205	 0.0	 157.99	 -157.99	 1.0	 100.0	 1	 64.82	 1.59	 0.0	 0.0	 0.0	 0.0	 0.0	 0.0	 0.0	 0.0	 0.0	 0.0	 64.818	0.5173	0.5177; % NG
	2	 112.96	 -4.39	 35.12	 -43.9	 1.0	 100.0	 1	 170.7	 55.22	 0.0	 0.0	 0.0	 0.0	 0.0	 0.0	 0.0	 0.0	 0.0	 0.0	 170.701	0.5173	0.5177; % NG
	3	 27.655	 -14.855	 118.84	 -148.55	 1.0	 100.0	 1	 46.11	 9.2	 0.0	 0.0	 0.0	 0.0	 0.0	 0.0	 0.0	 0.0	 0.0	 0.0	 46.109	0.5173	0.5177; % NG
	5	 192.11	 0.0	 93.15	 -93.15	 1.0	 100.0	 1	 228.68	 155.54	 0.0	 0.0	 0.0	 0.0	 0.0	 0.0	 0.0	 0.0	 0.0	 0.0	 228.682	0.5173	0.5177; % NG
	10	 64.315	 -8.13	 65.04	 -81.3	 1.0	 100.0	 1	 83.06	 45.57	 0.0	 0.0	 0.0	 0.0	 0.0	 0.0	 0.0	 0.0	 0.0	 0.0	 83.063	0.5173	0.5177; % NG
	12	 114.585	 45.625	 106.25	 -15.0	 1.0	 166.81	 1	 137.5	 91.67	 0.0	 0.0	 0.0	 0.0	 0.0	 0.0	 0.0	 0.0	 0.0	 0.0	 137.5	0.8204	0.8230; % COW
	12	 0.0	 0.0	 40.0	 -40.0	 1.0	 120.0	 0	 120.0	 100.0	 0.0	 0.0	 0.0	 0.0	 0.0	 0.0	 0.0	 0.0	 0.0	 0.0	 120.0	0.5173	0.5177; % NG
	13	 114.585	 35.0	 85.0	 -15.0	 1.0	 166.81	 1	 137.5	 91.67	 0.0	 0.0	 0.0	 0.0	 0.0	 0.0	 0.0	 0.0	 0.0	 0.0	 137.5	0.5173	0.5177; % NG
	15	 0.0	 0.0	 16.67	 -16.67	 1.0	 50.0	 0	 50.0	 40.0	 0.0	 0.0	 0.0	 0.0	 0.0	 0.0	 0.0	 0.0	 0.0	 0.0	 50.0	0.5173	0.5177; % NG
	18	 187.5	 40.0	 112.0	 -32.0	 1.0	 225.0	 1	 225.0	 150.0	 0.0	 0.0	 0.0	 0.0	 0.0	 0.0	 0.0	 0.0	 0.0	 0.0	 225.0	0.8204	0.8230; % COW
	19	 200.0	 54.0	 140.0	 -32.0	 1.0	 275.06	 1	 250.0	 150.0	 0.0	 0.0	 0.0	 0.0	 0.0	 0.0	 0.0	 0.0	 0.0	 0.0	 250.0	0.8204	0.8230; % COW
	19	 0.0	 0.0	 66.67	 -66.67	 1.0	 200.0	 0	 200.0	 150.0	 0.0	 0.0	 0.0	 0.0	 0.0	 0.0	 0.0	 0.0	 0.0	 0.0	 200.0	0.5173	0.5177; % NG
	19	 166.665	 49.61	 131.22	 -32.0	 1.0	 234.36	 1	 200.0	 133.33	 0.0	 0.0	 0.0	 0.0	 0.0	 0.0	 0.0	 0.0	 0.0	 0.0	 200.0	0.5173	0.5177; % NG
	20	 325.0	 54.25	 367.5	 -259.0	 1.0	 566.05	 1	 464.0	 186.0	 0.0	 0.0	 0.0	 0.0	 0.0	 0.0	 0.0	 0.0	 0.0	 0.0	 464.0	0.8204	0.8230; % COW
	24	 317.85	 -3.95	 31.61	 -39.51	 1.0	 100.0	 1	 442.98	 192.72	 0.0	 0.0	 0.0	 0.0	 0.0	 0.0	 0.0	 0.0	 0.0	 0.0	 442.978	0.5173	0.5177; % NG
	25	 0.0	 0.0	 33.33	 -33.33	 1.0	 100.0	 0	 85.2	 70.2	 0.0	 0.0	 0.0	 0.0	 0.0	 0.0	 0.0	 0.0	 0.0	 0.0	 85.204	0.8204	0.8230; % COW
	32	 0.0	 0.0	 33.33	 -33.33	 1.0	 100.0	 0	 177.48	 162.48	 0.0	 0.0	 0.0	 0.0	 0.0	 0.0	 0.0	 0.0	 0.0	 0.0	 177.483	0.8204	0.8230; % COW
	44	 35.0	 17.5	 57.0	 -22.0	 1.0	 61.03	 1	 55.0	 15.0	 0.0	 0.0	 0.0	 0.0	 0.0	 0.0	 0.0	 0.0	 0.0	 0.0	 55.0	0.5173	0.5177; % NG
	45	 41.875	 17.5	 57.0	 -22.0	 1.0	 68.9	 1	 68.75	 15.0	 0.0	 0.0	 0.0	 0.0	 0.0	 0.0	 0.0	 0.0	 0.0	 0.0	 68.75	0.5173	0.5177; % NG
	45	 40.0	 21.5	 71.0	 -28.0	 1.0	 77.0	 1	 77.0	 3.0	 0.0	 0.0	 0.0	 0.0	 0.0	 0.0	 0.0	 0.0	 0.0	 0.0	 77.0	0.7001	0.7018; % PEL
	59	 25.52	 0.0	 13.64	 -13.64	 1.0	 100.0	 1	 36.54	 14.5	 0.0	 0.0	 0.0	 0.0	 0.0	 0.0	 0.0	 0.0	 0.0	 0.0	 36.54	0.5173	0.5177; % NG
	64	 0.0	 0.0	 33.33	 -33.33	 1.0	 100.0	 0	 38.85	 23.85	 0.0	 0.0	 0.0	 0.0	 0.0	 0.0	 0.0	 0.0	 0.0	 0.0	 38.851	0.8204	0.8230; % COW
	80	 0.0	 0.0	 16.67	 -16.67	 1.0	 50.0	 0	 50.0	 35.0	 0.0	 0.0	 0.0	 0.0	 0.0	 0.0	 0.0	 0.0	 0.0	 0.0	 50.0	0.5173	0.5177; % NG
	80	 25.835	 -83.5	 10.0	 -177.0	 1.0	 28.0	 1	 35.0	 16.67	 0.0	 0.0	 0.0	 0.0	 0.0	 0.0	 0.0	 0.0	 0.0	 0.0	 35.0	0.7001	0.7018; % PEL
	82	 0.0	 0.0	 33.33	 -33.33	 1.0	 100.0	 0	 30.55	 15.55	 0.0	 0.0	 0.0	 0.0	 0.0	 0.0	 0.0	 0.0	 0.0	 0.0	 30.546	0.5173	0.5177; % NG
	84	 0.0	 0.0	 66.67	 -66.67	 1.0	 200.0	 0	 200.0	 150.0	 0.0	 0.0	 0.0	 0.0	 0.0	 0.0	 0.0	 0.0	 0.0	 0.0	 200.0	0.5173	0.5177; % NG
	85	 175.0	 46.5	 111.0	 -18.0	 1.0	 253.76	 1	 200.0	 150.0	 0.0	 0.0	 0.0	 0.0	 0.0	 0.0	 0.0	 0.0	 0.0	 0.0	 200.0	0.5173	0.5177; % NG
	98	 0.0	 0.0	 16.67	 -16.67	 1.0	 50.0	 0	 50.0	 0.0	 0.0	 0.0	 0.0	 0.0	 0.0	 0.0	 0.0	 0.0	 0.0	 0.0	 50.0	0.5173	0.5177; % NG
	98	 27.5	 -66.65	 41.7	 -175.0	 1.0	 55.0	 1	 55.0	 0.0	 0.0	 0.0	 0.0	 0.0	 0.0	 0.0	 0.0	 0.0	 0.0	 0.0	 55.0	0.5173	0.5177; % NG
	98	 0.0	 0.0	 18.33	 -18.33	 1.0	 55.0	 0	 55.0	 0.0	 0.0	 0.0	 0.0	 0.0	 0.0	 0.0	 0.0	 0.0	 0.0	 0.0	 55.0	0.5173	0.5177; % NG
	99	 0.0	 0.0	 11.67	 -11.67	 1.0	 35.0	 0	 35.0	 0.0	 0.0	 0.0	 0.0	 0.0	 0.0	 0.0	 0.0	 0.0	 0.0	 0.0	 35.0	0.7001	0.7018; % PEL
	99	 0.0	 0.0	 10.67	 -10.67	 1.0	 32.0	 0	 32.0	 0.0	 0.0	 0.0	 0.0	 0.0	 0.0	 0.0	 0.0	 0.0	 0.0	 0.0	 32.0	0.7001	0.7018; % PEL
	110	 0.0	 0.0	 2.33	 -2.33	 1.0	 7.0	 0	 292.0	 5.0	 0.0	 0.0	 0.0	 0.0	 0.0	 0.0	 0.0	 0.0	 0.0	 0.0	 292.0	0.5173	0.5177; % NG
	113	 57.65	 0.0	 11.04	 -11.04	 1.0	 100.0	 1	 71.88	 43.42	 0.0	 0.0	 0.0	 0.0	 0.0	 0.0	 0.0	 0.0	 0.0	 0.0	 71.879	0.8204	0.8230; % COW
	115	 136.0	 10.5	 187.0	 -166.0	 1.0	 4.02	 1	 271.0	 1.0	 0.0	 0.0	 0.0	 0.0	 0.0	 0.0	 0.0	 0.0	 0.0	 0.0	 271.0	0.5173	0.5177; % NG
	120	 0.0	 0.0	 1.33	 -1.33	 1.0	 4.0	 0	 279.0	 0.0	 0.0	 0.0	 0.0	 0.0	 0.0	 0.0	 0.0	 0.0	 0.0	 0.0	 279.0	0.5173	0.5177; % NG
	120	 0.0	 0.0	 1.33	 -1.33	 1.0	 4.0	 0	 251.0	 0.0	 0.0	 0.0	 0.0	 0.0	 0.0	 0.0	 0.0	 0.0	 0.0	 0.0	 251.0	0.5173	0.5177; % NG
	120	 0.0	 0.0	 1.33	 -1.33	 1.0	 4.0	 0	 266.0	 0.0	 0.0	 0.0	 0.0	 0.0	 0.0	 0.0	 0.0	 0.0	 0.0	 0.0	 266.0	0.5173	0.5177; % NG
	120	 10.0	 -85.0	 15.0	 -185.0	 1.0	 22.88	 1	 20.0	 0.0	 0.0	 0.0	 0.0	 0.0	 0.0	 0.0	 0.0	 0.0	 0.0	 0.0	 20.0	0.5173	0.5177; % NG
	120	 10.0	 -81.125	 18.75	 -181.0	 1.0	 20.0	 1	 20.0	 0.0	 0.0	 0.0	 0.0	 0.0	 0.0	 0.0	 0.0	 0.0	 0.0	 0.0	 20.0	0.5173	0.5177; % NG
	124	 12.5	 1.5	 179.0	 -176.0	 1.0	 13.31	 1	 20.0	 5.0	 0.0	 0.0	 0.0	 0.0	 0.0	 0.0	 0.0	 0.0	 0.0	 0.0	 20.0	0.7001	0.7018; % PEL
	124	 0.0	 0.0	 4.0	 -4.0	 1.0	 12.0	 0	 20.0	 5.0	 0.0	 0.0	 0.0	 0.0	 0.0	 0.0	 0.0	 0.0	 0.0	 0.0	 20.0	0.5173	0.5177; % NG
	128	 0.0	 0.0	 1.67	 -1.67	 1.0	 5.0	 0	 274.0	 4.0	 0.0	 0.0	 0.0	 0.0	 0.0	 0.0	 0.0	 0.0	 0.0	 0.0	 274.0	0.8204	0.8230; % COW
	132	 8.25	 -77.94	 13.12	 -169.0	 1.0	 15.84	 1	 16.5	 0.0	 0.0	 0.0	 0.0	 0.0	 0.0	 0.0	 0.0	 0.0	 0.0	 0.0	 16.5	0.5173	0.5177; % NG
	132	 127.5	 2.0	 178.0	 -174.0	 1.0	 5.0	 1	 255.0	 0.0	 0.0	 0.0	 0.0	 0.0	 0.0	 0.0	 0.0	 0.0	 0.0	 0.0	 255.0	0.8204	0.8230; % COW
	132	 0.0	 0.0	 1.67	 -1.67	 1.0	 5.0	 0	 262.0	 0.0	 0.0	 0.0	 0.0	 0.0	 0.0	 0.0	 0.0	 0.0	 0.0	 0.0	 262.0	0.5173	0.5177; % NG
	133	 0.0	 0.0	 4.33	 -4.33	 1.0	 13.0	 0	 13.0	 0.0	 0.0	 0.0	 0.0	 0.0	 0.0	 0.0	 0.0	 0.0	 0.0	 0.0	 13.0	0.7001	0.7018; % PEL
	136	 0.0	 0.0	 2.0	 -2.0	 1.0	 6.0	 0	 298.0	 5.0	 0.0	 0.0	 0.0	 0.0	 0.0	 0.0	 0.0	 0.0	 0.0	 0.0	 298.0	0.8204	0.8230; % COW
	147	 141.0	 -2.5	 176.0	 -181.0	 1.0	 1.0	 1	 282.0	 0.0	 0.0	 0.0	 0.0	 0.0	 0.0	 0.0	 0.0	 0.0	 0.0	 0.0	 282.0	0.5173	0.5177; % NG
	153	 0.0	 0.0	 3.67	 -3.67	 1.0	 11.0	 0	 11.0	 0.0	 0.0	 0.0	 0.0	 0.0	 0.0	 0.0	 0.0	 0.0	 0.0	 0.0	 11.0	0.5173	0.5177; % NG
	153	 0.0	 0.0	 2.0	 -2.0	 1.0	 6.0	 0	 270.0	 0.0	 0.0	 0.0	 0.0	 0.0	 0.0	 0.0	 0.0	 0.0	 0.0	 0.0	 270.0	0.5173	0.5177; % NG
	153	 20.0	 -72.0	 24.0	 -168.0	 1.0	 41.48	 1	 40.0	 0.0	 0.0	 0.0	 0.0	 0.0	 0.0	 0.0	 0.0	 0.0	 0.0	 0.0	 40.0	0.5173	0.5177; % NG
	153	 20.0	 -77.5	 26.0	 -181.0	 1.0	 40.0	 1	 40.0	 0.0	 0.0	 0.0	 0.0	 0.0	 0.0	 0.0	 0.0	 0.0	 0.0	 0.0	 40.0	0.5173	0.5177; % NG
	157	 17.5	 8.5	 194.0	 -177.0	 1.0	 35.0	 1	 35.0	 0.0	 0.0	 0.0	 0.0	 0.0	 0.0	 0.0	 0.0	 0.0	 0.0	 0.0	 35.0	0.7001	0.7018; % PEL
	157	 0.0	 0.0	 11.67	 -11.67	 1.0	 35.0	 0	 35.0	 0.0	 0.0	 0.0	 0.0	 0.0	 0.0	 0.0	 0.0	 0.0	 0.0	 0.0	 35.0	0.5173	0.5177; % NG
	159	 28.625	 93.865	 196.0	 -8.27	 1.0	 100.0	 1	 44.72	 12.53	 0.0	 0.0	 0.0	 0.0	 0.0	 0.0	 0.0	 0.0	 0.0	 0.0	 44.724	0.5173	0.5177; % NG
	160	 16.69	 3.5	 17.0	 -10.0	 1.0	 34.12	 1	 33.38	 0.0	 0.0	 0.0	 0.0	 0.0	 0.0	 0.0	 0.0	 0.0	 0.0	 0.0	 33.375	0.7001	0.7018; % PEL
	160	 13.5	 3.5	 17.0	 -10.0	 1.0	 27.0	 1	 27.0	 0.0	 0.0	 0.0	 0.0	 0.0	 0.0	 0.0	 0.0	 0.0	 0.0	 0.0	 27.0	0.5173	0.5177; % NG
	170	 183.75	 0.0	 330.75	 -330.75	 1.0	 100.0	 1	 367.5	 0.0	 0.0	 0.0	 0.0	 0.0	 0.0	 0.0	 0.0	 0.0	 0.0	 0.0	 367.5	0.5173	0.5177; % NG
	171	 692.385	 -2.805	 22.43	 -28.04	 1.0	 100.0	 1	 1108.43	 276.34	 0.0	 0.0	 0.0	 0.0	 0.0	 0.0	 0.0	 0.0	 0.0	 0.0	 1108.425	0.0000	0.0000; % NUC
	172	 135.0	 0.0	 194.4	 -194.4	 1.0	 100.0	 1	 270.0	 0.0	 0.0	 0.0	 0.0	 0.0	 0.0	 0.0	 0.0	 0.0	 0.0	 0.0	 270.0	0.8204	0.8230; % COW
	175	 142.5	 0.0	 205.2	 -205.2	 1.0	 100.0	 1	 285.0	 0.0	 0.0	 0.0	 0.0	 0.0	 0.0	 0.0	 0.0	 0.0	 0.0	 0.0	 285.0	0.8204	0.8230; % COW
	176	 142.5	 0.0	 205.2	 -205.2	 1.0	 100.0	 1	 285.0	 0.0	 0.0	 0.0	 0.0	 0.0	 0.0	 0.0	 0.0	 0.0	 0.0	 0.0	 285.0	0.5173	0.5177; % NG
	177	 142.5	 0.0	 205.2	 -205.2	 1.0	 100.0	 1	 285.0	 0.0	 0.0	 0.0	 0.0	 0.0	 0.0	 0.0	 0.0	 0.0	 0.0	 0.0	 285.0	0.5173	0.5177; % NG
	178	 194.25	 0.0	 349.65	 -349.65	 1.0	 100.0	 1	 388.5	 0.0	 0.0	 0.0	 0.0	 0.0	 0.0	 0.0	 0.0	 0.0	 0.0	 0.0	 388.5	0.5173	0.5177; % NG
	180	 216.175	 0.0	 389.11	 -389.11	 1.0	 100.0	 1	 432.35	 0.0	 0.0	 0.0	 0.0	 0.0	 0.0	 0.0	 0.0	 0.0	 0.0	 0.0	 432.348	0.5173	0.5177; % NG
	181	 216.175	 0.0	 389.11	 -389.11	 1.0	 100.0	 1	 432.35	 0.0	 0.0	 0.0	 0.0	 0.0	 0.0	 0.0	 0.0	 0.0	 0.0	 0.0	 432.347	0.5173	0.5177; % NG
	183	 202.515	 0.0	 364.53	 -364.53	 1.0	 100.0	 1	 405.03	 0.0	 0.0	 0.0	 0.0	 0.0	 0.0	 0.0	 0.0	 0.0	 0.0	 0.0	 405.03	0.8204	0.8230; % COW
	184	 202.49	 0.0	 364.49	 -364.49	 1.0	 100.0	 1	 404.98	 0.0	 0.0	 0.0	 0.0	 0.0	 0.0	 0.0	 0.0	 0.0	 0.0	 0.0	 404.985	0.8204	0.8230; % COW
	185	 202.525	 0.0	 364.55	 -364.55	 1.0	 100.0	 1	 405.05	 0.0	 0.0	 0.0	 0.0	 0.0	 0.0	 0.0	 0.0	 0.0	 0.0	 0.0	 405.051	0.8204	0.8230; % COW
	186	 202.515	 0.0	 364.53	 -364.53	 1.0	 100.0	 1	 405.03	 0.0	 0.0	 0.0	 0.0	 0.0	 0.0	 0.0	 0.0	 0.0	 0.0	 0.0	 405.028	0.5173	0.5177; % NG
	188	 200.025	 0.0	 360.05	 -360.05	 1.0	 100.0	 1	 400.05	 0.0	 0.0	 0.0	 0.0	 0.0	 0.0	 0.0	 0.0	 0.0	 0.0	 0.0	 400.05	0.8204	0.8230; % COW
	189	 200.025	 0.0	 360.05	 -360.05	 1.0	 100.0	 1	 400.05	 0.0	 0.0	 0.0	 0.0	 0.0	 0.0	 0.0	 0.0	 0.0	 0.0	 0.0	 400.05	0.8204	0.8230; % COW
	190	 199.95	 0.0	 359.91	 -359.91	 1.0	 100.0	 1	 399.9	 0.0	 0.0	 0.0	 0.0	 0.0	 0.0	 0.0	 0.0	 0.0	 0.0	 0.0	 399.9	0.8204	0.8230; % COW
	192	 192.75	 0.0	 346.95	 -346.95	 1.0	 100.0	 1	 385.5	 0.0	 0.0	 0.0	 0.0	 0.0	 0.0	 0.0	 0.0	 0.0	 0.0	 0.0	 385.5	0.5173	0.5177; % NG
	193	 192.75	 0.0	 346.95	 -346.95	 1.0	 100.0	 1	 385.5	 0.0	 0.0	 0.0	 0.0	 0.0	 0.0	 0.0	 0.0	 0.0	 0.0	 0.0	 385.5	0.5173	0.5177; % NG
	194	 204.425	 0.0	 367.96	 -367.96	 1.0	 100.0	 1	 408.85	 0.0	 0.0	 0.0	 0.0	 0.0	 0.0	 0.0	 0.0	 0.0	 0.0	 0.0	 408.848	0.5173	0.5177; % NG
	197	 667.61	 0.0	 95.0	 -95.0	 1.0	 100.0	 1	 776.82	 558.4	 0.0	 0.0	 0.0	 0.0	 0.0	 0.0	 0.0	 0.0	 0.0	 0.0	 776.819	0.8204	0.8230; % COW
	198	 726.57	 0.0	 237.47	 -237.47	 1.0	 100.0	 1	 871.88	 581.26	 0.0	 0.0	 0.0	 0.0	 0.0	 0.0	 0.0	 0.0	 0.0	 0.0	 871.884	0.8204	0.8230; % COW
	203	 560.595	 11.37	 113.7	 -90.96	 1.0	 100.0	 1	 917.82	 203.37	 0.0	 0.0	 0.0	 0.0	 0.0	 0.0	 0.0	 0.0	 0.0	 0.0	 917.82	0.8204	0.8230; % COW
	204	 0.0	 0.0	 33.33	 -33.33	 1.0	 100.0	 0	 285.0	 0.0	 0.0	 0.0	 0.0	 0.0	 0.0	 0.0	 0.0	 0.0	 0.0	 0.0	 285.0	0.5173	0.5177; % NG
	204	 0.0	 0.0	 33.33	 -33.33	 1.0	 100.0	 0	 263.0	 0.0	 0.0	 0.0	 0.0	 0.0	 0.0	 0.0	 0.0	 0.0	 0.0	 0.0	 263.0	0.5173	0.5177; % NG
	205	 0.0	 0.0	 33.33	 -33.33	 1.0	 100.0	 0	 256.0	 0.0	 0.0	 0.0	 0.0	 0.0	 0.0	 0.0	 0.0	 0.0	 0.0	 0.0	 256.0	0.5173	0.5177; % NG
	205	 0.0	 0.0	 33.33	 -33.33	 1.0	 100.0	 0	 292.0	 0.0	 0.0	 0.0	 0.0	 0.0	 0.0	 0.0	 0.0	 0.0	 0.0	 0.0	 292.0	0.5173	0.5177; % NG
	206	 1666.29	 0.0	 205.53	 -205.53	 1.0	 100.0	 1	 1966.77	 1365.81	 0.0	 0.0	 0.0	 0.0	 0.0	 0.0	 0.0	 0.0	 0.0	 0.0	 1966.771	0.8204	0.8230; % COW
	211	 0.0	 0.0	 33.33	 -33.33	 1.0	 100.0	 0	 269.0	 0.0	 0.0	 0.0	 0.0	 0.0	 0.0	 0.0	 0.0	 0.0	 0.0	 0.0	 269.0	0.5173	0.5177; % NG
	211	 0.0	 0.0	 33.33	 -33.33	 1.0	 100.0	 0	 269.0	 0.0	 0.0	 0.0	 0.0	 0.0	 0.0	 0.0	 0.0	 0.0	 0.0	 0.0	 269.0	0.8204	0.8230; % COW
	220	 0.0	 0.0	 33.33	 -33.33	 1.0	 100.0	 0	 95.92	 80.92	 0.0	 0.0	 0.0	 0.0	 0.0	 0.0	 0.0	 0.0	 0.0	 0.0	 95.919	0.5173	0.5177; % NG
	228	 394.02	 0.0	 121.05	 -121.05	 1.0	 100.0	 1	 451.68	 336.36	 0.0	 0.0	 0.0	 0.0	 0.0	 0.0	 0.0	 0.0	 0.0	 0.0	 451.68	0.8204	0.8230; % COW
	229	 303.1	 2.265	 24.78	 -20.25	 1.0	 100.0	 1	 363.72	 242.48	 0.0	 0.0	 0.0	 0.0	 0.0	 0.0	 0.0	 0.0	 0.0	 0.0	 363.72	0.5173	0.5177; % NG
	230	 249.06	 1.695	 16.98	 -13.59	 1.0	 100.0	 1	 287.55	 210.57	 0.0	 0.0	 0.0	 0.0	 0.0	 0.0	 0.0	 0.0	 0.0	 0.0	 287.547	0.5173	0.5177; % NG
	246	 0.0	 0.0	 33.33	 -33.33	 1.0	 100.0	 0	 256.0	 0.0	 0.0	 0.0	 0.0	 0.0	 0.0	 0.0	 0.0	 0.0	 0.0	 0.0	 256.0	0.5173	0.5177; % NG
	247	 0.0	 0.0	 33.33	 -33.33	 1.0	 100.0	 0	 251.0	 0.0	 0.0	 0.0	 0.0	 0.0	 0.0	 0.0	 0.0	 0.0	 0.0	 0.0	 251.0	0.5173	0.5177; % NG
	258	 126.565	 0.0	 182.25	 -182.25	 1.0	 100.0	 1	 253.13	 0.0	 0.0	 0.0	 0.0	 0.0	 0.0	 0.0	 0.0	 0.0	 0.0	 0.0	 253.125	0.5173	0.5177; % NG
	259	 126.565	 0.0	 182.25	 -182.25	 1.0	 100.0	 1	 253.13	 0.0	 0.0	 0.0	 0.0	 0.0	 0.0	 0.0	 0.0	 0.0	 0.0	 0.0	 253.125	0.5173	0.5177; % NG
	260	 126.565	 0.0	 182.25	 -182.25	 1.0	 100.0	 1	 253.13	 0.0	 0.0	 0.0	 0.0	 0.0	 0.0	 0.0	 0.0	 0.0	 0.0	 0.0	 253.125	0.8204	0.8230; % COW
	262	 206.08	 0.0	 370.95	 -370.95	 1.0	 100.0	 1	 412.16	 0.0	 0.0	 0.0	 0.0	 0.0	 0.0	 0.0	 0.0	 0.0	 0.0	 0.0	 412.164	0.8204	0.8230; % COW
	307	 209.575	 0.0	 377.23	 -377.23	 1.0	 100.0	 1	 419.15	 0.0	 0.0	 0.0	 0.0	 0.0	 0.0	 0.0	 0.0	 0.0	 0.0	 0.0	 419.147	0.8204	0.8230; % COW
	316	 19.55	 -2.415	 19.34	 -24.17	 1.0	 100.0	 1	 32.91	 6.19	 0.0	 0.0	 0.0	 0.0	 0.0	 0.0	 0.0	 0.0	 0.0	 0.0	 32.912	0.5173	0.5177; % NG
	319	 24.15	 91.525	 193.0	 -9.95	 1.0	 100.0	 1	 43.57	 4.73	 0.0	 0.0	 0.0	 0.0	 0.0	 0.0	 0.0	 0.0	 0.0	 0.0	 43.567	0.5173	0.5177; % NG
	321	 23.44	 0.0	 33.75	 -33.75	 1.0	 100.0	 1	 46.88	 0.0	 0.0	 0.0	 0.0	 0.0	 0.0	 0.0	 0.0	 0.0	 0.0	 0.0	 46.875	0.5173	0.5177; % NG
	323	 23.44	 0.0	 33.75	 -33.75	 1.0	 100.0	 1	 46.88	 0.0	 0.0	 0.0	 0.0	 0.0	 0.0	 0.0	 0.0	 0.0	 0.0	 0.0	 46.875	0.5173	0.5177; % NG
	324	 52.82	 93.735	 189.0	 -1.53	 1.0	 100.0	 1	 64.44	 41.2	 0.0	 0.0	 0.0	 0.0	 0.0	 0.0	 0.0	 0.0	 0.0	 0.0	 64.438	0.5173	0.5177; % NG
	326	 21.565	 0.0	 31.05	 -31.05	 1.0	 100.0	 1	 43.13	 0.0	 0.0	 0.0	 0.0	 0.0	 0.0	 0.0	 0.0	 0.0	 0.0	 0.0	 43.125	0.5173	0.5177; % NG
	327	 21.565	 0.0	 31.05	 -31.05	 1.0	 100.0	 1	 43.13	 0.0	 0.0	 0.0	 0.0	 0.0	 0.0	 0.0	 0.0	 0.0	 0.0	 0.0	 43.125	0.7001	0.7018; % PEL
	330	 34.69	 0.0	 49.95	 -49.95	 1.0	 100.0	 1	 69.38	 0.0	 0.0	 0.0	 0.0	 0.0	 0.0	 0.0	 0.0	 0.0	 0.0	 0.0	 69.375	0.5173	0.5177; % NG
	334	 9.375	 0.0	 13.5	 -13.5	 1.0	 100.0	 1	 18.75	 0.0	 0.0	 0.0	 0.0	 0.0	 0.0	 0.0	 0.0	 0.0	 0.0	 0.0	 18.75	0.8204	0.8230; % COW
	335	 9.375	 0.0	 13.5	 -13.5	 1.0	 100.0	 1	 18.75	 0.0	 0.0	 0.0	 0.0	 0.0	 0.0	 0.0	 0.0	 0.0	 0.0	 0.0	 18.75	0.7001	0.7018; % PEL
	336	 9.375	 0.0	 13.5	 -13.5	 1.0	 100.0	 1	 18.75	 0.0	 0.0	 0.0	 0.0	 0.0	 0.0	 0.0	 0.0	 0.0	 0.0	 0.0	 18.75	0.5173	0.5177; % NG
	340	 43.885	 0.0	 63.18	 -63.18	 1.0	 100.0	 1	 87.77	 0.0	 0.0	 0.0	 0.0	 0.0	 0.0	 0.0	 0.0	 0.0	 0.0	 0.0	 87.771	0.5173	0.5177; % NG
	342	 16.925	 0.0	 24.37	 -24.37	 1.0	 100.0	 1	 33.85	 0.0	 0.0	 0.0	 0.0	 0.0	 0.0	 0.0	 0.0	 0.0	 0.0	 0.0	 33.85	0.7001	0.7018; % PEL
	345	 0.0	 0.0	 33.33	 -33.33	 1.0	 100.0	 0	 34.72	 19.73	 0.0	 0.0	 0.0	 0.0	 0.0	 0.0	 0.0	 0.0	 0.0	 0.0	 34.725	0.5173	0.5177; % NG
	346	 23.525	 0.0	 35.64	 -35.64	 1.0	 100.0	 1	 34.71	 12.34	 0.0	 0.0	 0.0	 0.0	 0.0	 0.0	 0.0	 0.0	 0.0	 0.0	 34.714	0.5173	0.5177; % NG
	348	 62.425	 -1.31	 10.48	 -13.1	 1.0	 100.0	 1	 76.89	 47.96	 0.0	 0.0	 0.0	 0.0	 0.0	 0.0	 0.0	 0.0	 0.0	 0.0	 76.887	0.7001	0.7018; % PEL
	353	 23.185	 0.0	 29.96	 -29.96	 1.0	 100.0	 1	 43.63	 2.74	 0.0	 0.0	 0.0	 0.0	 0.0	 0.0	 0.0	 0.0	 0.0	 0.0	 43.626	0.5173	0.5177; % NG
	355	 0.0	 0.0	 33.33	 -33.33	 1.0	 100.0	 0	 95.57	 80.57	 0.0	 0.0	 0.0	 0.0	 0.0	 0.0	 0.0	 0.0	 0.0	 0.0	 95.575	0.5173	0.5177; % NG
	359	 79.13	 96.14	 196.0	 -3.72	 1.0	 100.0	 1	 93.14	 65.12	 0.0	 0.0	 0.0	 0.0	 0.0	 0.0	 0.0	 0.0	 0.0	 0.0	 93.142	0.7001	0.7018; % PEL
	370	 0.0	 0.0	 33.33	 -33.33	 1.0	 100.0	 0	 35.05	 20.05	 0.0	 0.0	 0.0	 0.0	 0.0	 0.0	 0.0	 0.0	 0.0	 0.0	 35.048	0.7001	0.7018; % PEL
	376	 23.44	 0.0	 33.75	 -33.75	 1.0	 100.0	 1	 46.88	 0.0	 0.0	 0.0	 0.0	 0.0	 0.0	 0.0	 0.0	 0.0	 0.0	 0.0	 46.875	0.5173	0.5177; % NG
	384	 14.065	 0.0	 20.25	 -20.25	 1.0	 100.0	 1	 28.13	 0.0	 0.0	 0.0	 0.0	 0.0	 0.0	 0.0	 0.0	 0.0	 0.0	 0.0	 28.125	0.5173	0.5177; % NG
	387	 37.345	 -4.23	 33.85	 -42.31	 1.0	 100.0	 1	 47.76	 26.93	 0.0	 0.0	 0.0	 0.0	 0.0	 0.0	 0.0	 0.0	 0.0	 0.0	 47.76	0.5173	0.5177; % NG
	388	 0.0	 0.0	 33.33	 -33.33	 1.0	 100.0	 0	 47.75	 32.75	 0.0	 0.0	 0.0	 0.0	 0.0	 0.0	 0.0	 0.0	 0.0	 0.0	 47.746	0.5173	0.5177; % NG
	391	 34.7	 96.12	 196.0	 -3.76	 1.0	 100.0	 1	 44.67	 24.73	 0.0	 0.0	 0.0	 0.0	 0.0	 0.0	 0.0	 0.0	 0.0	 0.0	 44.671	0.5173	0.5177; % NG
	402	 25.64	 0.0	 18.25	 -18.25	 1.0	 100.0	 1	 38.25	 13.03	 0.0	 0.0	 0.0	 0.0	 0.0	 0.0	 0.0	 0.0	 0.0	 0.0	 38.249	0.5173	0.5177; % NG
	404	 44.5	 -70.9	 41.2	 -183.0	 1.0	 78.0	 1	 78.0	 11.0	 0.0	 0.0	 0.0	 0.0	 0.0	 0.0	 0.0	 0.0	 0.0	 0.0	 78.0	0.8204	0.8230; % COW
	422	 53.625	 -60.75	 52.5	 -174.0	 1.0	 83.96	 1	 86.25	 21.0	 0.0	 0.0	 0.0	 0.0	 0.0	 0.0	 0.0	 0.0	 0.0	 0.0	 86.25	0.7001	0.7018; % PEL
	441	 134.36	 62.5	 131.0	 -6.0	 1.0	 258.66	 1	 268.72	 0.0	 0.0	 0.0	 0.0	 0.0	 0.0	 0.0	 0.0	 0.0	 0.0	 0.0	 268.721	0.5173	0.5177; % NG
	453	 17.75	 0.0	 14.32	 -14.32	 1.0	 100.0	 1	 27.17	 8.33	 0.0	 0.0	 0.0	 0.0	 0.0	 0.0	 0.0	 0.0	 0.0	 0.0	 27.174	0.5173	0.5177; % NG
	471	 138.315	 84.09	 179.0	 -10.82	 1.0	 100.0	 1	 187.96	 88.67	 0.0	 0.0	 0.0	 0.0	 0.0	 0.0	 0.0	 0.0	 0.0	 0.0	 187.961	0.5173	0.5177; % NG
	489	 78.275	 -1.675	 20.33	 -23.68	 1.0	 100.0	 1	 113.92	 42.63	 0.0	 0.0	 0.0	 0.0	 0.0	 0.0	 0.0	 0.0	 0.0	 0.0	 113.922	0.8204	0.8230; % COW
	494	 183.125	 59.5	 152.0	 -33.0	 1.0	 306.24	 1	 256.25	 110.0	 0.0	 0.0	 0.0	 0.0	 0.0	 0.0	 0.0	 0.0	 0.0	 0.0	 256.25	0.5173	0.5177; % NG
	494	 0.0	 0.0	 73.33	 -73.33	 1.0	 220.0	 0	 220.0	 125.0	 0.0	 0.0	 0.0	 0.0	 0.0	 0.0	 0.0	 0.0	 0.0	 0.0	 220.0	0.5173	0.5177; % NG
	495	 0.0	 0.0	 75.0	 -75.0	 1.0	 225.0	 0	 225.0	 125.0	 0.0	 0.0	 0.0	 0.0	 0.0	 0.0	 0.0	 0.0	 0.0	 0.0	 225.0	0.5173	0.5177; % NG
	495	 183.125	 76.625	 186.25	 -33.0	 1.0	 304.12	 1	 256.25	 110.0	 0.0	 0.0	 0.0	 0.0	 0.0	 0.0	 0.0	 0.0	 0.0	 0.0	 256.25	0.8204	0.8230; % COW
	496	 195.625	 53.875	 149.0	 -41.25	 1.0	 274.96	 1	 281.25	 110.0	 0.0	 0.0	 0.0	 0.0	 0.0	 0.0	 0.0	 0.0	 0.0	 0.0	 281.25	0.5173	0.5177; % NG
	496	 172.5	 53.875	 149.0	 -41.25	 1.0	 228.01	 1	 225.0	 120.0	 0.0	 0.0	 0.0	 0.0	 0.0	 0.0	 0.0	 0.0	 0.0	 0.0	 225.0	0.5173	0.5177; % NG
	497	 395.0	 158.0	 363.0	 -47.0	 1.0	 535.0	 1	 535.0	 255.0	 0.0	 0.0	 0.0	 0.0	 0.0	 0.0	 0.0	 0.0	 0.0	 0.0	 535.0	0.8204	0.8230; % COW
	498	 405.0	 124.0	 348.0	 -100.0	 1.0	 560.0	 1	 560.0	 250.0	 0.0	 0.0	 0.0	 0.0	 0.0	 0.0	 0.0	 0.0	 0.0	 0.0	 560.0	0.5173	0.5177; % NG
	502	 115.005	 0.0	 20.73	 -20.73	 1.0	 100.0	 1	 147.17	 82.84	 0.0	 0.0	 0.0	 0.0	 0.0	 0.0	 0.0	 0.0	 0.0	 0.0	 147.174	0.5173	0.5177; % NG
	504	 154.8	 -3.015	 24.12	 -30.15	 1.0	 100.0	 1	 233.66	 75.94	 0.0	 0.0	 0.0	 0.0	 0.0	 0.0	 0.0	 0.0	 0.0	 0.0	 233.656	0.8204	0.8230; % COW
	505	 0.0	 0.0	 75.0	 -75.0	 1.0	 225.0	 0	 225.0	 129.0	 0.0	 0.0	 0.0	 0.0	 0.0	 0.0	 0.0	 0.0	 0.0	 0.0	 225.0	0.5173	0.5177; % NG
	505	 0.0	 0.0	 75.0	 -75.0	 1.0	 225.0	 0	 225.0	 129.0	 0.0	 0.0	 0.0	 0.0	 0.0	 0.0	 0.0	 0.0	 0.0	 0.0	 225.0	0.5173	0.5177; % NG
	505	 0.0	 0.0	 33.33	 -33.33	 1.0	 100.0	 0	 90.65	 75.65	 0.0	 0.0	 0.0	 0.0	 0.0	 0.0	 0.0	 0.0	 0.0	 0.0	 90.647	0.5173	0.5177; % NG
	514	 0.0	 0.0	 33.33	 -33.33	 1.0	 100.0	 0	 30.22	 15.22	 0.0	 0.0	 0.0	 0.0	 0.0	 0.0	 0.0	 0.0	 0.0	 0.0	 30.222	0.5173	0.5177; % NG
	515	 41.51	 91.19	 191.0	 -8.62	 1.0	 100.0	 1	 74.82	 8.2	 0.0	 0.0	 0.0	 0.0	 0.0	 0.0	 0.0	 0.0	 0.0	 0.0	 74.821	0.5173	0.5177; % NG
	516	 0.0	 0.0	 33.33	 -33.33	 1.0	 100.0	 0	 90.09	 75.09	 0.0	 0.0	 0.0	 0.0	 0.0	 0.0	 0.0	 0.0	 0.0	 0.0	 90.088	0.7001	0.7018; % PEL
	517	 49.315	 -2.515	 20.15	 -25.18	 1.0	 100.0	 1	 88.02	 10.61	 0.0	 0.0	 0.0	 0.0	 0.0	 0.0	 0.0	 0.0	 0.0	 0.0	 88.022	0.5173	0.5177; % NG
	518	 0.0	 0.0	 33.33	 -33.33	 1.0	 100.0	 0	 57.35	 42.35	 0.0	 0.0	 0.0	 0.0	 0.0	 0.0	 0.0	 0.0	 0.0	 0.0	 57.353	0.5173	0.5177; % NG
	519	 0.0	 0.0	 33.33	 -33.33	 1.0	 100.0	 0	 284.0	 1.16	 0.0	 0.0	 0.0	 0.0	 0.0	 0.0	 0.0	 0.0	 0.0	 0.0	 284.0	0.5173	0.5177; % NG
	520	 0.0	 0.0	 2.0	 -2.0	 1.0	 6.0	 0	 258.0	 1.0	 0.0	 0.0	 0.0	 0.0	 0.0	 0.0	 0.0	 0.0	 0.0	 0.0	 258.0	0.5173	0.5177; % NG
	520	 0.0	 0.0	 2.0	 -2.0	 1.0	 6.0	 0	 292.0	 1.0	 0.0	 0.0	 0.0	 0.0	 0.0	 0.0	 0.0	 0.0	 0.0	 0.0	 292.0	0.8204	0.8230; % COW
	537	 0.0	 0.0	 33.33	 -33.33	 1.0	 100.0	 0	 69.86	 54.86	 0.0	 0.0	 0.0	 0.0	 0.0	 0.0	 0.0	 0.0	 0.0	 0.0	 69.858	0.5173	0.5177; % NG
	538	 41.875	 17.5	 57.0	 -22.0	 1.0	 68.9	 1	 68.75	 15.0	 0.0	 0.0	 0.0	 0.0	 0.0	 0.0	 0.0	 0.0	 0.0	 0.0	 68.75	0.5173	0.5177; % NG
	538	 40.0	 21.5	 71.0	 -28.0	 1.0	 77.0	 1	 77.0	 3.0	 0.0	 0.0	 0.0	 0.0	 0.0	 0.0	 0.0	 0.0	 0.0	 0.0	 77.0	0.7001	0.7018; % PEL
	544	 0.0	 0.0	 2.33	 -2.33	 1.0	 7.0	 0	 280.0	 3.0	 0.0	 0.0	 0.0	 0.0	 0.0	 0.0	 0.0	 0.0	 0.0	 0.0	 280.0	0.5173	0.5177; % NG
	558	 0.0	 0.0	 1.33	 -1.33	 1.0	 4.0	 0	 297.0	 3.0	 0.0	 0.0	 0.0	 0.0	 0.0	 0.0	 0.0	 0.0	 0.0	 0.0	 297.0	0.5173	0.5177; % NG
	565	 51.0	 -67.0	 35.0	 -169.0	 1.0	 63.02	 1	 65.0	 37.0	 0.0	 0.0	 0.0	 0.0	 0.0	 0.0	 0.0	 0.0	 0.0	 0.0	 65.0	0.7001	0.7018; % PEL
	565	 0.0	 0.0	 10.0	 -10.0	 1.0	 30.0	 0	 30.0	 10.0	 0.0	 0.0	 0.0	 0.0	 0.0	 0.0	 0.0	 0.0	 0.0	 0.0	 30.0	0.7001	0.7018; % PEL
	565	 0.0	 0.0	 35.0	 -35.0	 1.0	 105.0	 0	 105.0	 50.0	 0.0	 0.0	 0.0	 0.0	 0.0	 0.0	 0.0	 0.0	 0.0	 0.0	 105.0	0.5173	0.5177; % NG
	565	 77.5	 -47.0	 85.0	 -179.0	 1.0	 105.0	 1	 105.0	 50.0	 0.0	 0.0	 0.0	 0.0	 0.0	 0.0	 0.0	 0.0	 0.0	 0.0	 105.0	0.5173	0.5177; % NG
	599	 195.625	 58.0	 149.0	 -33.0	 1.0	 249.58	 1	 256.25	 135.0	 0.0	 0.0	 0.0	 0.0	 0.0	 0.0	 0.0	 0.0	 0.0	 0.0	 256.25	0.5173	0.5177; % NG
	600	 0.0	 0.0	 75.0	 -75.0	 1.0	 225.0	 0	 225.0	 110.0	 0.0	 0.0	 0.0	 0.0	 0.0	 0.0	 0.0	 0.0	 0.0	 0.0	 225.0	0.5173	0.5177; % NG
	603	 0.0	 0.0	 56.67	 -56.67	 1.0	 170.0	 0	 170.0	 66.0	 0.0	 0.0	 0.0	 0.0	 0.0	 0.0	 0.0	 0.0	 0.0	 0.0	 170.0	0.5173	0.5177; % NG
	603	 0.0	 0.0	 20.33	 -20.33	 1.0	 61.0	 0	 61.0	 34.0	 0.0	 0.0	 0.0	 0.0	 0.0	 0.0	 0.0	 0.0	 0.0	 0.0	 61.0	0.5173	0.5177; % NG
	605	 0.0	 0.0	 7.0	 -7.0	 1.0	 21.0	 0	 21.0	 0.0	 0.0	 0.0	 0.0	 0.0	 0.0	 0.0	 0.0	 0.0	 0.0	 0.0	 21.0	0.7001	0.7018; % PEL
	624	 63.07	 89.51	 185.0	 -5.98	 1.0	 100.0	 1	 97.0	 29.14	 0.0	 0.0	 0.0	 0.0	 0.0	 0.0	 0.0	 0.0	 0.0	 0.0	 96.995	0.5173	0.5177; % NG
	627	 0.0	 0.0	 0.67	 -0.67	 1.0	 2.0	 0	 280.0	 1.0	 0.0	 0.0	 0.0	 0.0	 0.0	 0.0	 0.0	 0.0	 0.0	 0.0	 280.0	0.8204	0.8230; % COW
	627	 32.28	 93.99	 195.0	 -7.02	 1.0	 100.0	 1	 48.18	 16.38	 0.0	 0.0	 0.0	 0.0	 0.0	 0.0	 0.0	 0.0	 0.0	 0.0	 48.183	0.5173	0.5177; % NG
	630	 0.0	 0.0	 12.0	 -12.0	 1.0	 36.0	 0	 36.0	 0.0	 0.0	 0.0	 0.0	 0.0	 0.0	 0.0	 0.0	 0.0	 0.0	 0.0	 36.0	0.7001	0.7018; % PEL
	632	 0.0	 0.0	 1.0	 -1.0	 1.0	 3.0	 0	 295.0	 2.0	 0.0	 0.0	 0.0	 0.0	 0.0	 0.0	 0.0	 0.0	 0.0	 0.0	 295.0	0.5173	0.5177; % NG
	635	 0.0	 0.0	 33.33	 -33.33	 1.0	 100.0	 0	 255.0	 3.12	 0.0	 0.0	 0.0	 0.0	 0.0	 0.0	 0.0	 0.0	 0.0	 0.0	 255.0	0.8204	0.8230; % COW
	638	 0.0	 0.0	 33.33	 -33.33	 1.0	 100.0	 0	 25.26	 10.26	 0.0	 0.0	 0.0	 0.0	 0.0	 0.0	 0.0	 0.0	 0.0	 0.0	 25.259	0.7001	0.7018; % PEL
	640	 0.0	 0.0	 33.33	 -33.33	 1.0	 100.0	 0	 295.0	 3.64	 0.0	 0.0	 0.0	 0.0	 0.0	 0.0	 0.0	 0.0	 0.0	 0.0	 295.0	0.5173	0.5177; % NG
	649	 0.0	 0.0	 2.0	 -2.0	 1.0	 6.0	 0	 283.0	 1.0	 0.0	 0.0	 0.0	 0.0	 0.0	 0.0	 0.0	 0.0	 0.0	 0.0	 283.0	0.8204	0.8230; % COW
	651	 0.0	 0.0	 33.33	 -33.33	 1.0	 100.0	 0	 269.0	 3.54	 0.0	 0.0	 0.0	 0.0	 0.0	 0.0	 0.0	 0.0	 0.0	 0.0	 269.0	0.8204	0.8230; % COW
	667	 129.0	 -62.0	 50.0	 -174.0	 1.0	 157.0	 1	 150.0	 108.0	 0.0	 0.0	 0.0	 0.0	 0.0	 0.0	 0.0	 0.0	 0.0	 0.0	 150.0	0.5173	0.5177; % NG
	668	 56.0	 3.0	 190.0	 -184.0	 1.0	 112.0	 1	 112.0	 0.0	 0.0	 0.0	 0.0	 0.0	 0.0	 0.0	 0.0	 0.0	 0.0	 0.0	 112.0	0.5173	0.5177; % NG
	669	 162.0	 0.0	 201.2	 -201.2	 1.0	 100.0	 1	 194.4	 129.6	 0.0	 0.0	 0.0	 0.0	 0.0	 0.0	 0.0	 0.0	 0.0	 0.0	 194.4	0.5173	0.5177; % NG
	675	 194.385	 70.0	 150.0	 -10.0	 1.0	 282.49	 1	 268.77	 120.0	 0.0	 0.0	 0.0	 0.0	 0.0	 0.0	 0.0	 0.0	 0.0	 0.0	 268.77	0.5173	0.5177; % NG
	676	 194.375	 55.0	 120.0	 -10.0	 1.0	 281.34	 1	 268.75	 120.0	 0.0	 0.0	 0.0	 0.0	 0.0	 0.0	 0.0	 0.0	 0.0	 0.0	 268.75	0.5173	0.5177; % NG
	677	 195.625	 66.875	 168.75	 -35.0	 1.0	 252.98	 1	 256.25	 135.0	 0.0	 0.0	 0.0	 0.0	 0.0	 0.0	 0.0	 0.0	 0.0	 0.0	 256.25	0.5173	0.5177; % NG
	679	 0.0	 0.0	 45.0	 -45.0	 1.0	 135.0	 0	 135.0	 -135.0	 0.0	 0.0	 0.0	 0.0	 0.0	 0.0	 0.0	 0.0	 0.0	 0.0	 135.0	0.5173	0.5177; % NG
	679	 0.0	 0.0	 45.0	 -45.0	 1.0	 135.0	 0	 135.0	 -135.0	 0.0	 0.0	 0.0	 0.0	 0.0	 0.0	 0.0	 0.0	 0.0	 0.0	 135.0	0.5173	0.5177; % NG
	680	 0.0	 0.0	 45.0	 -45.0	 1.0	 135.0	 0	 135.0	 -135.0	 0.0	 0.0	 0.0	 0.0	 0.0	 0.0	 0.0	 0.0	 0.0	 0.0	 135.0	0.5173	0.5177; % NG
	680	 0.0	 0.0	 45.0	 -45.0	 1.0	 135.0	 0	 135.0	 -135.0	 0.0	 0.0	 0.0	 0.0	 0.0	 0.0	 0.0	 0.0	 0.0	 0.0	 135.0	0.5173	0.5177; % NG
	687	 0.0	 0.0	 16.67	 -16.67	 1.0	 50.0	 0	 50.0	 38.0	 0.0	 0.0	 0.0	 0.0	 0.0	 0.0	 0.0	 0.0	 0.0	 0.0	 50.0	0.5173	0.5177; % NG
	687	 0.0	 0.0	 16.67	 -16.67	 1.0	 50.0	 0	 50.0	 38.0	 0.0	 0.0	 0.0	 0.0	 0.0	 0.0	 0.0	 0.0	 0.0	 0.0	 50.0	0.5173	0.5177; % NG
	687	 0.0	 0.0	 16.67	 -16.67	 1.0	 50.0	 0	 50.0	 38.0	 0.0	 0.0	 0.0	 0.0	 0.0	 0.0	 0.0	 0.0	 0.0	 0.0	 50.0	0.5173	0.5177; % NG
	688	 0.0	 0.0	 16.67	 -16.67	 1.0	 50.0	 0	 50.0	 38.0	 0.0	 0.0	 0.0	 0.0	 0.0	 0.0	 0.0	 0.0	 0.0	 0.0	 50.0	0.5173	0.5177; % NG
	697	 0.0	 0.0	 33.33	 -33.33	 1.0	 100.0	 0	 262.0	 0.12	 0.0	 0.0	 0.0	 0.0	 0.0	 0.0	 0.0	 0.0	 0.0	 0.0	 262.0	0.5173	0.5177; % NG
	698	 194.375	 55.0	 120.0	 -10.0	 1.0	 273.78	 1	 268.75	 120.0	 0.0	 0.0	 0.0	 0.0	 0.0	 0.0	 0.0	 0.0	 0.0	 0.0	 268.75	0.8204	0.8230; % COW
	700	 31.47	 0.0	 18.24	 -18.24	 1.0	 100.0	 1	 60.35	 2.59	 0.0	 0.0	 0.0	 0.0	 0.0	 0.0	 0.0	 0.0	 0.0	 0.0	 60.349	0.5173	0.5177; % NG
	704	 113.125	 39.0	 83.0	 -5.0	 1.0	 160.45	 1	 156.25	 70.0	 0.0	 0.0	 0.0	 0.0	 0.0	 0.0	 0.0	 0.0	 0.0	 0.0	 156.25	0.5173	0.5177; % NG
	704	 97.5	 39.0	 83.0	 -5.0	 1.0	 143.77	 1	 125.0	 70.0	 0.0	 0.0	 0.0	 0.0	 0.0	 0.0	 0.0	 0.0	 0.0	 0.0	 125.0	0.8204	0.8230; % COW
	726	 128.5	 5.5	 195.0	 -184.0	 1.0	 42.43	 1	 257.0	 0.0	 0.0	 0.0	 0.0	 0.0	 0.0	 0.0	 0.0	 0.0	 0.0	 0.0	 257.0	0.5173	0.5177; % NG
	727	 85.865	 -3.6	 28.79	 -35.99	 1.0	 100.0	 1	 121.92	 49.81	 0.0	 0.0	 0.0	 0.0	 0.0	 0.0	 0.0	 0.0	 0.0	 0.0	 121.921	0.8204	0.8230; % COW
	731	 0.0	 0.0	 33.33	 -33.33	 1.0	 100.0	 0	 229.72	 214.72	 0.0	 0.0	 0.0	 0.0	 0.0	 0.0	 0.0	 0.0	 0.0	 0.0	 229.718	0.5173	0.5177; % NG
	732	 0.0	 0.0	 33.33	 -33.33	 1.0	 100.0	 0	 48.71	 33.71	 0.0	 0.0	 0.0	 0.0	 0.0	 0.0	 0.0	 0.0	 0.0	 0.0	 48.706	0.5173	0.5177; % NG
	736	 -10.5	 21.5	 105.0	 -62.0	 1.0	 216.55	 1	 179.0	 -200.0	 0.0	 0.0	 0.0	 0.0	 0.0	 0.0	 0.0	 0.0	 0.0	 0.0	 179.0	0.5173	0.5177; % NG
	736	 -10.5	 21.5	 105.0	 -62.0	 1.0	 179.0	 1	 179.0	 -200.0	 0.0	 0.0	 0.0	 0.0	 0.0	 0.0	 0.0	 0.0	 0.0	 0.0	 179.0	0.8204	0.8230; % COW
...
];

%% generator cost data
%	2	startup	shutdown	n	c(n-1)	...	c0
mpc.gencost = [
	2	 0.0	 0.0	 3	   0.000000	  34.018330	   0.000000; % NG
	2	 0.0	 0.0	 3	   0.000000	  14.169489	   0.000000; % NG
	2	 0.0	 0.0	 3	   0.000000	  23.018748	   0.000000; % NG
	2	 0.0	 0.0	 3	   0.000000	  36.544528	   0.000000; % NG
	2	 0.0	 0.0	 3	   0.000000	  18.699304	   0.000000; % NG
	2	 0.0	 0.0	 3	   0.000000	  24.732738	   0.000000; % COW
	2	 0.0	 0.0	 3	   0.000000	  38.459628	   0.000000; % NG
	2	 0.0	 0.0	 3	   0.000000	  21.294905	   0.000000; % NG
	2	 0.0	 0.0	 3	   0.000000	  33.879274	   0.000000; % NG
	2	 0.0	 0.0	 3	   0.000000	  30.040749	   0.000000; % COW
	2	 0.0	 0.0	 3	   0.000000	  11.868019	   0.000000; % COW
	2	 0.0	 0.0	 3	   0.000000	  38.013323	   0.000000; % NG
	2	 0.0	 0.0	 3	   0.000000	  57.755194	   0.000000; % NG
	2	 0.0	 0.0	 3	   0.000000	  20.955397	   0.000000; % COW
	2	 0.0	 0.0	 3	   0.000000	  41.358554	   0.000000; % NG
	2	 0.0	 0.0	 3	   0.000000	  24.946092	   0.000000; % COW
	2	 0.0	 0.0	 3	   0.000000	  20.868630	   0.000000; % COW
	2	 0.0	 0.0	 3	   0.000000	  23.425268	   0.000000; % NG
	2	 0.0	 0.0	 3	   0.000000	  17.228792	   0.000000; % NG
	2	 0.0	 0.0	 3	   0.000000	 116.659165	   0.000000; % PEL
	2	 0.0	 0.0	 3	   0.000000	  43.616773	   0.000000; % NG
	2	 0.0	 0.0	 3	   0.000000	  31.315769	   0.000000; % COW
	2	 0.0	 0.0	 3	   0.000000	  43.013330	   0.000000; % NG
	2	 0.0	 0.0	 3	   0.000000	 118.488919	   0.000000; % PEL
	2	 0.0	 0.0	 3	   0.000000	  24.946496	   0.000000; % NG
	2	 0.0	 0.0	 3	   0.000000	  30.176601	   0.000000; % NG
	2	 0.0	 0.0	 3	   0.000000	  18.176637	   0.000000; % NG
	2	 0.0	 0.0	 3	   0.000000	  27.605738	   0.000000; % NG
	2	 0.0	 0.0	 3	   0.000000	  23.899900	   0.000000; % NG
	2	 0.0	 0.0	 3	   0.000000	  15.467216	   0.000000; % NG
	2	 0.0	 0.0	 3	   0.000000	 105.413705	   0.000000; % PEL
	2	 0.0	 0.0	 3	   0.000000	 105.135197	   0.000000; % PEL
	2	 0.0	 0.0	 3	   0.000000	  47.183438	   0.000000; % NG
	2	 0.0	 0.0	 3	   0.000000	  16.381577	   0.000000; % COW
	2	 0.0	 0.0	 3	   0.000000	  45.387429	   0.000000; % NG
	2	 0.0	 0.0	 3	   0.000000	  29.230218	   0.000000; % NG
	2	 0.0	 0.0	 3	   0.000000	  37.861028	   0.000000; % NG
	2	 0.0	 0.0	 3	   0.000000	  39.277503	   0.000000; % NG
	2	 0.0	 0.0	 3	   0.000000	  46.423125	   0.000000; % NG
	2	 0.0	 0.0	 3	   0.000000	  36.942541	   0.000000; % NG
	2	 0.0	 0.0	 3	   0.000000	 100.817086	   0.000000; % PEL
	2	 0.0	 0.0	 3	   0.000000	  45.065421	   0.000000; % NG
	2	 0.0	 0.0	 3	   0.000000	  20.009863	   0.000000; % COW
	2	 0.0	 0.0	 3	   0.000000	  27.841706	   0.000000; % NG
	2	 0.0	 0.0	 3	   0.000000	  16.897706	   0.000000; % COW
	2	 0.0	 0.0	 3	   0.000000	  34.237697	   0.000000; % NG
	2	 0.0	 0.0	 3	   0.000000	  95.098545	   0.000000; % PEL
	2	 0.0	 0.0	 3	   0.000000	   6.446180	   0.000000; % COW
	2	 0.0	 0.0	 3	   0.000000	  37.480683	   0.000000; % NG
	2	 0.0	 0.0	 3	   0.000000	  47.561033	   0.000000; % NG
	2	 0.0	 0.0	 3	   0.000000	  27.008941	   0.000000; % NG
	2	 0.0	 0.0	 3	   0.000000	  33.404921	   0.000000; % NG
	2	 0.0	 0.0	 3	   0.000000	  38.318274	   0.000000; % NG
	2	 0.0	 0.0	 3	   0.000000	 105.413929	   0.000000; % PEL
	2	 0.0	 0.0	 3	   0.000000	  42.525338	   0.000000; % NG
	2	 0.0	 0.0	 3	   0.000000	  33.427654	   0.000000; % NG
	2	 0.0	 0.0	 3	   0.000000	 101.030008	   0.000000; % PEL
	2	 0.0	 0.0	 3	   0.000000	  34.121036	   0.000000; % NG
	2	 0.0	 0.0	 3	   0.000000	  35.738304	   0.000000; % NG
	2	 0.0	 0.0	 3	   0.000000	   7.034986	   0.000000; % NUC
	2	 0.0	 0.0	 3	   0.000000	  34.644063	   0.000000; % COW
	2	 0.0	 0.0	 3	   0.000000	  17.712178	   0.000000; % COW
	2	 0.0	 0.0	 3	   0.000000	  54.580014	   0.000000; % NG
	2	 0.0	 0.0	 3	   0.000000	  35.537215	   0.000000; % NG
	2	 0.0	 0.0	 3	   0.000000	  27.741251	   0.000000; % NG
	2	 0.0	 0.0	 3	   0.000000	  23.264210	   0.000000; % NG
	2	 0.0	 0.0	 3	   0.000000	  45.170915	   0.000000; % NG
	2	 0.0	 0.0	 3	   0.000000	  23.646357	   0.000000; % COW
	2	 0.0	 0.0	 3	   0.000000	  31.675463	   0.000000; % COW
	2	 0.0	 0.0	 3	   0.000000	  28.944582	   0.000000; % COW
	2	 0.0	 0.0	 3	   0.000000	  47.493790	   0.000000; % NG
	2	 0.0	 0.0	 3	   0.000000	  23.017204	   0.000000; % COW
	2	 0.0	 0.0	 3	   0.000000	  17.768797	   0.000000; % COW
	2	 0.0	 0.0	 3	   0.000000	  26.336760	   0.000000; % COW
	2	 0.0	 0.0	 3	   0.000000	  42.284317	   0.000000; % NG
	2	 0.0	 0.0	 3	   0.000000	  36.806588	   0.000000; % NG
	2	 0.0	 0.0	 3	   0.000000	  46.060103	   0.000000; % NG
	2	 0.0	 0.0	 3	   0.000000	  25.117270	   0.000000; % COW
	2	 0.0	 0.0	 3	   0.000000	  36.948013	   0.000000; % COW
	2	 0.0	 0.0	 3	   0.000000	  22.071519	   0.000000; % COW
	2	 0.0	 0.0	 3	   0.000000	  31.949820	   0.000000; % NG
	2	 0.0	 0.0	 3	   0.000000	  35.932776	   0.000000; % NG
	2	 0.0	 0.0	 3	   0.000000	  52.426528	   0.000000; % NG
	2	 0.0	 0.0	 3	   0.000000	  20.617686	   0.000000; % NG
	2	 0.0	 0.0	 3	   0.000000	  25.034441	   0.000000; % COW
	2	 0.0	 0.0	 3	   0.000000	  43.168729	   0.000000; % NG
	2	 0.0	 0.0	 3	   0.000000	  11.291275	   0.000000; % COW
	2	 0.0	 0.0	 3	   0.000000	  23.026445	   0.000000; % NG
	2	 0.0	 0.0	 3	   0.000000	  19.492604	   0.000000; % COW
	2	 0.0	 0.0	 3	   0.000000	  39.998259	   0.000000; % NG
	2	 0.0	 0.0	 3	   0.000000	  33.478323	   0.000000; % NG
	2	 0.0	 0.0	 3	   0.000000	  41.738114	   0.000000; % NG
	2	 0.0	 0.0	 3	   0.000000	  26.618034	   0.000000; % NG
	2	 0.0	 0.0	 3	   0.000000	  25.671854	   0.000000; % NG
	2	 0.0	 0.0	 3	   0.000000	  21.356345	   0.000000; % NG
	2	 0.0	 0.0	 3	   0.000000	  20.991881	   0.000000; % COW
	2	 0.0	 0.0	 3	   0.000000	  22.257707	   0.000000; % COW
	2	 0.0	 0.0	 3	   0.000000	  41.741286	   0.000000; % COW
	2	 0.0	 0.0	 3	   0.000000	  18.692814	   0.000000; % NG
	2	 0.0	 0.0	 3	   0.000000	  50.544652	   0.000000; % NG
	2	 0.0	 0.0	 3	   0.000000	  38.554260	   0.000000; % NG
	2	 0.0	 0.0	 3	   0.000000	  13.936755	   0.000000; % NG
	2	 0.0	 0.0	 3	   0.000000	  42.051636	   0.000000; % NG
	2	 0.0	 0.0	 3	   0.000000	  27.097263	   0.000000; % NG
	2	 0.0	 0.0	 3	   0.000000	 107.996893	   0.000000; % PEL
	2	 0.0	 0.0	 3	   0.000000	  34.873074	   0.000000; % NG
	2	 0.0	 0.0	 3	   0.000000	  32.143842	   0.000000; % COW
	2	 0.0	 0.0	 3	   0.000000	  95.679030	   0.000000; % PEL
	2	 0.0	 0.0	 3	   0.000000	  51.084610	   0.000000; % NG
	2	 0.0	 0.0	 3	   0.000000	  48.375747	   0.000000; % NG
	2	 0.0	 0.0	 3	   0.000000	 135.238410	   0.000000; % PEL
	2	 0.0	 0.0	 3	   0.000000	  35.389108	   0.000000; % NG
	2	 0.0	 0.0	 3	   0.000000	  18.721440	   0.000000; % NG
	2	 0.0	 0.0	 3	   0.000000	 102.244560	   0.000000; % PEL
	2	 0.0	 0.0	 3	   0.000000	  44.538821	   0.000000; % NG
	2	 0.0	 0.0	 3	   0.000000	  26.674243	   0.000000; % NG
	2	 0.0	 0.0	 3	   0.000000	  97.940159	   0.000000; % PEL
	2	 0.0	 0.0	 3	   0.000000	 121.327601	   0.000000; % PEL
	2	 0.0	 0.0	 3	   0.000000	  25.358864	   0.000000; % NG
	2	 0.0	 0.0	 3	   0.000000	  34.693301	   0.000000; % NG
	2	 0.0	 0.0	 3	   0.000000	  16.200780	   0.000000; % NG
	2	 0.0	 0.0	 3	   0.000000	  35.009557	   0.000000; % NG
	2	 0.0	 0.0	 3	   0.000000	  48.662458	   0.000000; % NG
	2	 0.0	 0.0	 3	   0.000000	  27.582743	   0.000000; % NG
	2	 0.0	 0.0	 3	   0.000000	  17.082825	   0.000000; % COW
	2	 0.0	 0.0	 3	   0.000000	  99.251941	   0.000000; % PEL
	2	 0.0	 0.0	 3	   0.000000	  28.932327	   0.000000; % NG
	2	 0.0	 0.0	 3	   0.000000	  21.556969	   0.000000; % NG
	2	 0.0	 0.0	 3	   0.000000	  29.643795	   0.000000; % NG
	2	 0.0	 0.0	 3	   0.000000	  15.778189	   0.000000; % COW
	2	 0.0	 0.0	 3	   0.000000	  29.934834	   0.000000; % NG
	2	 0.0	 0.0	 3	   0.000000	  42.955993	   0.000000; % NG
	2	 0.0	 0.0	 3	   0.000000	  28.429944	   0.000000; % NG
	2	 0.0	 0.0	 3	   0.000000	  24.541088	   0.000000; % COW
	2	 0.0	 0.0	 3	   0.000000	  31.151164	   0.000000; % NG
	2	 0.0	 0.0	 3	   0.000000	  32.533861	   0.000000; % NG
	2	 0.0	 0.0	 3	   0.000000	  20.992900	   0.000000; % COW
	2	 0.0	 0.0	 3	   0.000000	  34.019176	   0.000000; % NG
	2	 0.0	 0.0	 3	   0.000000	  41.683132	   0.000000; % NG
	2	 0.0	 0.0	 3	   0.000000	  21.595456	   0.000000; % COW
	2	 0.0	 0.0	 3	   0.000000	  30.536510	   0.000000; % NG
	2	 0.0	 0.0	 3	   0.000000	  30.978552	   0.000000; % NG
	2	 0.0	 0.0	 3	   0.000000	  60.309374	   0.000000; % NG
	2	 0.0	 0.0	 3	   0.000000	  50.127172	   0.000000; % NG
	2	 0.0	 0.0	 3	   0.000000	  23.804996	   0.000000; % NG
	2	 0.0	 0.0	 3	   0.000000	 103.888135	   0.000000; % PEL
	2	 0.0	 0.0	 3	   0.000000	  16.414005	   0.000000; % NG
	2	 0.0	 0.0	 3	   0.000000	  44.338124	   0.000000; % NG
	2	 0.0	 0.0	 3	   0.000000	  38.483821	   0.000000; % NG
	2	 0.0	 0.0	 3	   0.000000	  27.539997	   0.000000; % NG
	2	 0.0	 0.0	 3	   0.000000	   5.764857	   0.000000; % COW
	2	 0.0	 0.0	 3	   0.000000	  24.295203	   0.000000; % NG
	2	 0.0	 0.0	 3	   0.000000	  39.638880	   0.000000; % NG
	2	 0.0	 0.0	 3	   0.000000	 122.808844	   0.000000; % PEL
	2	 0.0	 0.0	 3	   0.000000	  22.317076	   0.000000; % NG
	2	 0.0	 0.0	 3	   0.000000	  10.697315	   0.000000; % NG
	2	 0.0	 0.0	 3	   0.000000	 110.126915	   0.000000; % PEL
	2	 0.0	 0.0	 3	   0.000000	 107.099554	   0.000000; % PEL
	2	 0.0	 0.0	 3	   0.000000	  11.397005	   0.000000; % NG
	2	 0.0	 0.0	 3	   0.000000	  35.388843	   0.000000; % NG
	2	 0.0	 0.0	 3	   0.000000	  32.053849	   0.000000; % NG
	2	 0.0	 0.0	 3	   0.000000	  29.252830	   0.000000; % NG
	2	 0.0	 0.0	 3	   0.000000	  11.180959	   0.000000; % NG
	2	 0.0	 0.0	 3	   0.000000	  41.375782	   0.000000; % NG
	2	 0.0	 0.0	 3	   0.000000	 114.778673	   0.000000; % PEL
	2	 0.0	 0.0	 3	   0.000000	  29.540266	   0.000000; % NG
	2	 0.0	 0.0	 3	   0.000000	  21.408639	   0.000000; % COW
	2	 0.0	 0.0	 3	   0.000000	  44.554404	   0.000000; % NG
	2	 0.0	 0.0	 3	   0.000000	 118.968338	   0.000000; % PEL
	2	 0.0	 0.0	 3	   0.000000	  28.786295	   0.000000; % NG
	2	 0.0	 0.0	 3	   0.000000	  29.612032	   0.000000; % COW
	2	 0.0	 0.0	 3	   0.000000	 107.498585	   0.000000; % PEL
	2	 0.0	 0.0	 3	   0.000000	  27.229507	   0.000000; % NG
	2	 0.0	 0.0	 3	   0.000000	  32.930790	   0.000000; % COW
	2	 0.0	 0.0	 3	   0.000000	  31.854830	   0.000000; % COW
	2	 0.0	 0.0	 3	   0.000000	  41.572166	   0.000000; % NG
	2	 0.0	 0.0	 3	   0.000000	  35.076258	   0.000000; % NG
	2	 0.0	 0.0	 3	   0.000000	  45.643443	   0.000000; % NG
	2	 0.0	 0.0	 3	   0.000000	  30.709151	   0.000000; % NG
	2	 0.0	 0.0	 3	   0.000000	  41.876874	   0.000000; % NG
	2	 0.0	 0.0	 3	   0.000000	  23.850696	   0.000000; % NG
	2	 0.0	 0.0	 3	   0.000000	  36.915998	   0.000000; % NG
	2	 0.0	 0.0	 3	   0.000000	   9.640348	   0.000000; % NG
	2	 0.0	 0.0	 3	   0.000000	  23.515752	   0.000000; % NG
	2	 0.0	 0.0	 3	   0.000000	  25.633430	   0.000000; % NG
	2	 0.0	 0.0	 3	   0.000000	  37.853951	   0.000000; % NG
	2	 0.0	 0.0	 3	   0.000000	  22.043766	   0.000000; % NG
	2	 0.0	 0.0	 3	   0.000000	  31.410565	   0.000000; % NG
	2	 0.0	 0.0	 3	   0.000000	  23.715808	   0.000000; % NG
	2	 0.0	 0.0	 3	   0.000000	  37.743915	   0.000000; % NG
	2	 0.0	 0.0	 3	   0.000000	  21.492971	   0.000000; % COW
	2	 0.0	 0.0	 3	   0.000000	  63.534478	   0.000000; % NG
	2	 0.0	 0.0	 3	   0.000000	  44.427651	   0.000000; % NG
	2	 0.0	 0.0	 3	   0.000000	  31.620130	   0.000000; % COW
	2	 0.0	 0.0	 3	   0.000000	  34.107630	   0.000000; % NG
	2	 0.0	 0.0	 3	   0.000000	  23.508294	   0.000000; % COW
	2	 0.0	 0.0	 3	   0.000000	  39.861158	   0.000000; % NG
	2	 0.0	 0.0	 3	   0.000000	  36.941739	   0.000000; % NG
	2	 0.0	 0.0	 3	   0.000000	  34.186360	   0.000000; % NG
	2	 0.0	 0.0	 3	   0.000000	  30.130740	   0.000000; % COW
...
];

%% branch data
%	fbus	tbus	r	x	b	rateA	rateB	rateC	ratio	angle	status	angmin	angmax
mpc.branch = [
	1	 2	 0.00558	 0.04147	 0.0629	 231.0	 231.0	 231.0	 0.0	 0.0	 1	 -30.0	 30.0;
	1	 2639	 0.0001	 0.01	 0.0	 224.58	 269.49	 336.87	 0.0	 0.0	 1	 -30.0	 30.0;
	2	 3	 2e-05	 0.00021	 0.0	 876.0	 876.0	 876.0	 0.0	 0.0	 1	 -30.0	 30.0;
	4	 2	 0.00059	 0.07897	 0.0	 160.0	 160.0	 160.0	 0.9999	 0.0	 1	 -30.0	 30.0;
	2	 7	 0.01262	 0.09326	 0.14324	 231.0	 231.0	 231.0	 0.0	 0.0	 1	 -30.0	 30.0;
	2	 2681	 0.0001	 0.01	 0.0	 193.09	 231.71	 289.64	 0.0	 0.0	 1	 -30.0	 30.0;
	3	 9	 0.00525	 0.03847	 0.06053	 231.0	 231.0	 231.0	 0.0	 0.0	 1	 -30.0	 30.0;
	3	 482	 0.0001	 0.01	 0.0	 134.24	 161.08	 201.35	 0.0	 0.0	 1	 -30.0	 30.0;
	41	 4	 -0.00467	 0.16067	 0.0	 260.0	 312.0	 390.0	 0.94157	 0.0	 1	 -30.0	 30.0;
	5	 12	 0.01068	 0.0475	 0.09495	 339.0	 339.0	 339.0	 0.0	 0.0	 1	 -30.0	 30.0;
	5	 946	 0.0001	 0.01	 0.0	 234.85	 281.81	 352.27	 0.0	 0.0	 1	 -30.0	 30.0;
	6	 7	 2e-05	 0.00021	 0.0	 876.0	 876.0	 876.0	 0.0	 0.0	 1	 -30.0	 30.0;
	6	 18	 0.01436	 0.10729	 0.16081	 231.0	 231.0	 231.0	 0.0	 0.0	 1	 -30.0	 30.0;
	49	 6	 0.00155	 0.06612	 0.0	 160.0	 160.0	 160.0	 1.07516	 0.0	 1	 -30.0	 30.0;
	50	 7	 0.00157	 0.06612	 0.0	 160.0	 160.0	 160.0	 1.06463	 0.0	 1	 -30.0	 30.0;
...